
 ANSYS Academic Teaching Advanced                  


 *------------------------------------------------------------------*
 |                                                                  |
 |   W E L C O M E   T O   T H E   A N S Y S (R)  P R O G R A M     |
 |                                                                  |
 *------------------------------------------------------------------*




 ***************************************************************
 *                  ANSYS 15.0 LEGAL NOTICES                   *
 ***************************************************************
 *                                                             *
 * Copyright 2014 SAS IP, Inc.  All rights reserved.           *
 * Unauthorized use, distribution or duplication is            *
 * prohibited.                                                 *
 *                                                             *
 * Ansys is a registered trademark of ANSYS, Inc. or its       *
 * subsidiaries in the United States or other countries.       *
 * See the ANSYS, Inc. online documentation or the ANSYS, Inc. *
 * documentation CD or online help for the complete Legal      *
 * Notice.                                                     *
 *                                                             *
 ***************************************************************
 *                                                             *
 * THIS ANSYS SOFTWARE PRODUCT AND PROGRAM DOCUMENTATION       *
 * INCLUDE TRADE SECRETS AND CONFIDENTIAL AND PROPRIETARY      *
 * PRODUCTS OF ANSYS, INC., ITS SUBSIDIARIES, OR LICENSORS.    *
 * The software products and documentation are furnished by    *
 * ANSYS, Inc. or its subsidiaries under a software license    *
 * agreement that contains provisions concerning               *
 * non-disclosure, copying, length and nature of use,          *
 * compliance with exporting laws, warranties, disclaimers,    *
 * limitations of liability, and remedies, and other           *
 * provisions.  The software products and documentation may be *
 * used, disclosed, transferred, or copied only in accordance  *
 * with the terms and conditions of that software license      *
 * agreement.                                                  *
 *                                                             *
 * ANSYS, Inc. is a UL registered                              *
 * ISO 9001:2008 company.                                      *
 *                                                             *
 ***************************************************************
 *                                                             *
 * This product is subject to U.S. laws governing export and   *
 * re-export.                                                  *
 *                                                             *
 * For U.S. Government users, except as specifically granted   *
 * by the ANSYS, Inc. software license agreement, the use,     *
 * duplication, or disclosure by the United States Government  *
 * is subject to restrictions stated in the ANSYS, Inc.        *
 * software license agreement and FAR 12.212 (for non-DOD      *
 * licenses).                                                  *
 *                                                             *
 ***************************************************************

 Point Releases and Patches installed:   
     
 ANSYS, Inc. Products 15.0.7 
 ANSYS Mechanical Products 15.0.7
 ANSYS, Inc. License Manager 15.0.7  


          *****  ANSYS COMMAND LINE ARGUMENTS  *****
  BATCH MODE REQUESTED (-b)    = NOLIST
  INPUT FILE COPY MODE (-c)    = COPY
     2 PARALLEL CPUS REQUESTED
  DESIGNXPLORER REQUESTED
  START-UP FILE MODE           = NOREAD
  STOP FILE MODE               = NOREAD

 00313154          VERSION=WINDOWS x64     RELEASE= 15.0.7  Maintenance Release UP20140420
 CURRENT JOBNAME=file  00:18:17  FEB 13, 2015 CP=      0.905


 PARAMETER _DS_PROGRESS =     999.0000000    

 /INPUT FILE= ds.dat  LINE=       0

 *GET  _WALLSTRT  FROM  ACTI  ITEM=TIME WALL  VALUE= 0.304722222    

 TITLE= 
 Design Workbench--Static Structural (I5)                                      


 SET PARAMETER DIMENSIONS ON  _WB_PROJECTSCRATCH_DIR
  TYPE=STRI  DIMENSIONS=      248        1        1

 PARAMETER _WB_PROJECTSCRATCH_DIR(1) = D:\MyDocs\Documents\GitHub\AgileRoboticControls\System Modelling\Mechanical\Finite Elements\_ProjectScratch\ScrAC3\

 SET PARAMETER DIMENSIONS ON  _WB_SOLVERFILES_DIR
  TYPE=STRI  DIMENSIONS=      248        1        1

 PARAMETER _WB_SOLVERFILES_DIR(1) = D:\MyDocs\Documents\GitHub\AgileRoboticControls\System Modelling\Mechanical\Finite Elements\Design Workbench_files\dp0\SYS-8\MECH\

 SET PARAMETER DIMENSIONS ON  _WB_USERFILES_DIR
  TYPE=STRI  DIMENSIONS=      248        1        1

 PARAMETER _WB_USERFILES_DIR(1) = D:\MyDocs\Documents\GitHub\AgileRoboticControls\System Modelling\Mechanical\Finite Elements\Design Workbench_files\user_files\
 --- Data in consistent NMM units.

 MPA UNITS SPECIFIED FOR INTERNAL    
  LENGTH      = MILLIMETERS (mm)
  MASS        = TONNE (Mg)
  TIME        = SECONDS (sec)
  TEMPERATURE = CELSIUS (C)
  TOFFSET     = 273.0
  FORCE       = NEWTON (N)
  HEAT        = MILLIJOULES (mJ)

 INPUT  UNITS ARE ALSO SET TO MPA 
1

 ***** ANSYS - ENGINEERING ANALYSIS SYSTEM  RELEASE 15.0.7   Maintenance Release *****
 ANSYS Academic Teaching Advanced                  
 00313154          VERSION=WINDOWS x64   00:18:17  FEB 13, 2015 CP=      0.952

 Design Workbench--Static Structural (I5)                                      


          ***** ANSYS ANALYSIS DEFINITION (PREP7) *****
 *********** Nodes for the whole assembly ***********
 *********** Elements for Body 1 "Part 1" ***********
 *********** Send User Defined Coordinate System(s) ***********
 *********** Set Reference Temperature ***********
 *********** Send Materials ***********
 *********** Define Force Using Surface Effect Elements ***********
 *********** Define Force Using Surface Effect Elements ***********
 *********** Construct Weak Springs, Prototype 1 ***********


 ***** ROUTINE COMPLETED *****  CP =         0.983


 --- Number of total nodes = 3752
 --- Number of contact elements = 44
 --- Number of spring elements = 24
 --- Number of bearing elements = 0
 --- Number of solid elements = 738
 --- Number of total elements = 806

 *GET  _WALLBSOL  FROM  ACTI  ITEM=TIME WALL  VALUE= 0.304722222    
 ****************************************************************************
 *************************    SOLUTION       ********************************
 ****************************************************************************

 *****  ANSYS SOLUTION ROUTINE  *****


 PERFORM A STATIC ANALYSIS
  THIS WILL BE A NEW ANALYSIS

 NEW SOLUTION CONTROL OPTION IS ACTIVATED,
 THE FOLLOWING COMMANDS ARE RESET TO NEW DEFAULTS: 
 AUTOTS, DELTIM, NSUB, CNVTOL, LNSRCH, PRED, NROPT,
 TINTP, CUTCONTROL, OPNCONTROL, MONITOR, NEQIT, SSTIF, KBC.

 CONTACT TIME PREDICTIONS ARE BASED ON ELEMENT KEYOPT(7) SPECIFIED 

 USE PRECONDITIONED CONJUGATE GRADIENT SOLVER
  CONVERGENCE TOLERANCE = 1.00000E-08
  MAXIMUM ITERATION     = NumNode*DofPerNode*  1.0000    

 CONTACT INFORMATION PRINTOUT LEVEL       1

 NLDIAG: Nonlinear diagnostics CONT option is set to ON. 
         Writing frequency : each ITERATION.

 DO NOT SAVE ANY RESTART FILES AT ALL
 ****************************************************
 ******************* SOLVE FOR LS 1 ****************

 SELECT       FOR ITEM=TYPE COMPONENT=    
  IN RANGE         2 TO          2 STEP          1

         22  ELEMENTS (OF        806  DEFINED) SELECTED BY  ESEL  COMMAND.

 SELECT      ALL NODES HAVING ANY ELEMENT IN ELEMENT SET.

       44 NODES (OF     3752  DEFINED) SELECTED FROM
       22 SELECTED ELEMENTS BY NSLE COMMAND.

 SPECIFIED SURFACE LOAD PRES FOR ALL SELECTED ELEMENTS  LKEY =  1   KVAL = 1
      SET ACCORDING TO TABLE PARAMETER = _LOADVARI25X                    

 SPECIFIED SURFACE LOAD PRES FOR ALL SELECTED ELEMENTS  LKEY =  2   KVAL = 1
      SET ACCORDING TO TABLE PARAMETER = _LOADVARI25Y                    

 SPECIFIED SURFACE LOAD PRES FOR ALL SELECTED ELEMENTS  LKEY =  3   KVAL = 1
      SET ACCORDING TO TABLE PARAMETER = _LOADVARI25Z                    

 SELECT       FOR ITEM=TYPE COMPONENT=    
  IN RANGE         3 TO          3 STEP          1

         22  ELEMENTS (OF        806  DEFINED) SELECTED BY  ESEL  COMMAND.

 SELECT      ALL NODES HAVING ANY ELEMENT IN ELEMENT SET.

       44 NODES (OF     3752  DEFINED) SELECTED FROM
       22 SELECTED ELEMENTS BY NSLE COMMAND.

 SPECIFIED SURFACE LOAD PRES FOR ALL SELECTED ELEMENTS  LKEY =  1   KVAL = 1
      SET ACCORDING TO TABLE PARAMETER = _LOADVARI27X                    

 SPECIFIED SURFACE LOAD PRES FOR ALL SELECTED ELEMENTS  LKEY =  2   KVAL = 1
      SET ACCORDING TO TABLE PARAMETER = _LOADVARI27Y                    

 SPECIFIED SURFACE LOAD PRES FOR ALL SELECTED ELEMENTS  LKEY =  3   KVAL = 1
      SET ACCORDING TO TABLE PARAMETER = _LOADVARI27Z                    

 ALL SELECT   FOR ITEM=NODE COMPONENT=    
  IN RANGE         1 TO       3752 STEP          1

       3752  NODES (OF       3752  DEFINED) SELECTED BY NSEL  COMMAND.

 ALL SELECT   FOR ITEM=ELEM COMPONENT=    
  IN RANGE         1 TO        806 STEP          1

        806  ELEMENTS (OF        806  DEFINED) SELECTED BY  ESEL  COMMAND.

 PRINTOUT RESUMED BY /GOP

 USE       1 SUBSTEPS INITIALLY THIS LOAD STEP FOR ALL  DEGREES OF FREEDOM
 FOR AUTOMATIC TIME STEPPING:
   USE      1 SUBSTEPS AS A MAXIMUM
   USE      1 SUBSTEPS AS A MINIMUM

 TIME=  1.0000    

 ERASE THE CURRENT DATABASE OUTPUT CONTROL TABLE.


 WRITE ALL  ITEMS TO THE DATABASE WITH A FREQUENCY OF NONE
   FOR ALL APPLICABLE ENTITIES

 WRITE NSOL ITEMS TO THE DATABASE WITH A FREQUENCY OF ALL 
   FOR ALL APPLICABLE ENTITIES

 WRITE RSOL ITEMS TO THE DATABASE WITH A FREQUENCY OF ALL 
   FOR ALL APPLICABLE ENTITIES

 WRITE STRS ITEMS TO THE DATABASE WITH A FREQUENCY OF ALL 
   FOR ALL APPLICABLE ENTITIES

 WRITE EPEL ITEMS TO THE DATABASE WITH A FREQUENCY OF ALL 
   FOR ALL APPLICABLE ENTITIES

 WRITE EPPL ITEMS TO THE DATABASE WITH A FREQUENCY OF ALL 
   FOR ALL APPLICABLE ENTITIES

 NONLINEAR STABILIZATION CONTROL:
 KEY=OFF 


 *GET  ANSINTER_  FROM  ACTI  ITEM=INT        VALUE=  0.00000000    

 *IF  ANSINTER_                         ( =   0.00000     )  NE  
      0                                 ( =   0.00000     )  THEN    

 *ENDIF

 *****  ANSYS SOLVE    COMMAND  *****

 *** WARNING ***                         CP =       0.983   TIME= 00:18:17
 Element shape checking is currently inactive.  Issue SHPP,ON or         
 SHPP,WARN to reactivate, if desired.                                    

 *** NOTE ***                            CP =       1.014   TIME= 00:18:17
 The model data was checked and warning messages were found.             
  Please review output or errors file (                                  
 D:\MyDocs\Documents\GitHub\AgileRoboticControls\System                  
 Modelling\Mechanical\Finite Elements\_ProjectScratch\ScrAC3\file.err )  
 for these warning messages.                                             

 *** SELECTION OF ELEMENT TECHNOLOGIES FOR APPLICABLE ELEMENTS ***
      --- GIVE SUGGESTIONS AND RESET THE KEY OPTIONS ---

 ELEMENT TYPE    1 IS SOLID186. KEYOPT(2)=0 IS SUGGESTED AND HAS BEEN RESET.
  KEYOPT(1-12)=    0    0    0    0    0    0    0    0    0    0    0    0


1

 ***** ANSYS - ENGINEERING ANALYSIS SYSTEM  RELEASE 15.0.7   Maintenance Release *****
 ANSYS Academic Teaching Advanced                  
 00313154          VERSION=WINDOWS x64   00:18:17  FEB 13, 2015 CP=      1.014

 Design Workbench--Static Structural (I5)                                      


                       S O L U T I O N   O P T I O N S

   PROBLEM DIMENSIONALITY. . . . . . . . . . . . .3-D                  
   DEGREES OF FREEDOM. . . . . . UX   UY   UZ  
   ANALYSIS TYPE . . . . . . . . . . . . . . . . .STATIC (STEADY-STATE)
   OFFSET TEMPERATURE FROM ABSOLUTE ZERO . . . . .  273.15    
   EQUATION SOLVER OPTION. . . . . . . . . . . . .PCG                
      TOLERANCE. . . . . . . . . . . . . . . . . . 1.00000E-08
   GLOBALLY ASSEMBLED MATRIX . . . . . . . . . . .SYMMETRIC  

 *** WARNING ***                         CP =       1.014   TIME= 00:18:17
 Material number 2 (used by element 739 ) should normally have at least  
 one MP or one TB type command associated with it.  Output of energy by  
 material may not be available.                                          

 *** NOTE ***                            CP =       1.014   TIME= 00:18:17
 The step data was checked and warning messages were found.              
  Please review output or errors file (                                  
 D:\MyDocs\Documents\GitHub\AgileRoboticControls\System                  
 Modelling\Mechanical\Finite Elements\_ProjectScratch\ScrAC3\file.err )  
 for these warning messages.                                             

                      L O A D   S T E P   O P T I O N S

   LOAD STEP NUMBER. . . . . . . . . . . . . . . .     1
   TIME AT END OF THE LOAD STEP. . . . . . . . . .  1.0000    
   NUMBER OF SUBSTEPS. . . . . . . . . . . . . . .     1
   STEP CHANGE BOUNDARY CONDITIONS . . . . . . . .    NO
   PRINT OUTPUT CONTROLS . . . . . . . . . . . . .NO PRINTOUT
   DATABASE OUTPUT CONTROLS
      ITEM     FREQUENCY   COMPONENT
       ALL       NONE               
      NSOL        ALL               
      RSOL        ALL               
      STRS        ALL               
      EPEL        ALL               
      EPPL        ALL               


 SOLUTION MONITORING INFO IS WRITTEN TO FILE= file.mntr                                                                                                                                                                                                                                                           


 *** NOTE ***                            CP =       1.170   TIME= 00:18:17
 The PCG solver has automatically set the level of difficulty for this   
 model to 1.                                                             


                         ***********  PRECISE MASS SUMMARY  ***********

   TOTAL RIGID BODY MASS MATRIX ABOUT ORIGIN
               Translational mass               |   Coupled translational/rotational mass
        0.31572E-04    0.0000        0.0000     |     0.0000       0.50121E-03  -0.11335E-02
         0.0000       0.31572E-04    0.0000     |   -0.50121E-03    0.0000      -0.10753E-02
         0.0000        0.0000       0.31572E-04 |    0.11335E-02   0.10753E-02    0.0000    
     ------------------------------------------ | ------------------------------------------
                                                |         Rotational mass (inertia)
                                                |    0.51620E-01   0.38604E-01   0.17070E-01
                                                |    0.38604E-01   0.47550E-01  -0.17994E-01
                                                |    0.17070E-01  -0.17994E-01   0.77952E-01

   TOTAL MASS = 0.31572E-04
     The mass principal axes coincide with the global Cartesian axes

   CENTER OF MASS (X,Y,Z)=   -34.058        35.901        15.875    

   TOTAL INERTIA ABOUT CENTER OF MASS
        0.29705E-02  -0.73564E-10  -0.31083E-13
       -0.73564E-10   0.29705E-02  -0.31194E-13
       -0.31083E-13  -0.31194E-13   0.63653E-03
     The inertia principal axes coincide with the global Cartesian axes


  *** MASS SUMMARY BY ELEMENT TYPE ***

  TYPE      MASS
     1  0.315722E-04

 Range of element maximum matrix coefficients in global coordinates
 Maximum = 640238.951 at element 492.                                    
 Minimum = 3.51956931E-04 at element 806.                                

 *** WARNING ***                         CP =       1.357   TIME= 00:18:17
 Coefficient ratio exceeds 1.0e8 - Check results.                        

   *** ELEMENT MATRIX FORMULATION TIMES
  TYPE    NUMBER   ENAME      TOTAL CP  AVE CP

     1       738  SOLID186      0.312   0.000423
     2        22  SURF156       0.000   0.000000
     3        22  SURF156       0.000   0.000000
     4        24  COMBIN14      0.000   0.000000
 Time at end of element matrix formulation CP = 1.35720861.              
 Iteration=     5 Ratio=  2.027644E-03 Limit=  1.000000E-08 Wall=     0.0
 Iteration=    10 Ratio=  3.666519E-04 Limit=  1.000000E-08 Wall=     0.0
 Iteration=    40 Ratio=  1.684411E-06 Limit=  1.000000E-08 Wall=     0.1

 PRECONDITIONED SOLVER CP TIME      =     0.499
 PRECONDITIONED SOLVER ELAPSED TIME =     0.284

   *** ELEMENT RESULT CALCULATION TIMES
  TYPE    NUMBER   ENAME      TOTAL CP  AVE CP

     1       738  SOLID186      0.187   0.000254
     2        22  SURF156       0.000   0.000000
     3        22  SURF156       0.000   0.000000
     4        24  COMBIN14      0.000   0.000000

   *** NODAL LOAD CALCULATION TIMES
  TYPE    NUMBER   ENAME      TOTAL CP  AVE CP

     1       738  SOLID186      0.000   0.000000
     2        22  SURF156       0.000   0.000000
     3        22  SURF156       0.000   0.000000
     4        24  COMBIN14      0.000   0.000000
 *** LOAD STEP     1   SUBSTEP     1  COMPLETED.    CUM ITER =      1
 *** TIME =   1.00000         TIME INC =   1.00000      NEW TRIANG MATRIX


 *** ANSYS BINARY FILE STATISTICS
  BUFFER SIZE USED= 16384
        0.125 MB WRITTEN ON ELEMENT MATRIX FILE: file.emat
        0.562 MB WRITTEN ON ELEMENT SAVED DATA FILE: file.esav
        1.438 MB WRITTEN ON RESULTS FILE: file.rst
 *************** Write FE CONNECTORS *********

 WRITE OUT CONSTRAINT EQUATIONS TO FILE= file.ce                                                                                                                                                                                                                                                             
 ****************************************************
 *************** FINISHED SOLVE FOR LS 1 *************

 PARAMETER _DS_PROGRESS  DELETED.

 *GET  _WALLASOL  FROM  ACTI  ITEM=TIME WALL  VALUE= 0.305000000    

 *GET  _PCGITER  FROM  ACTI  ITEM=SOLU CGIT  VALUE=  73.0000000    

 FINISH SOLUTION PROCESSING


 ***** ROUTINE COMPLETED *****  CP =         2.012


1

 ***** ANSYS - ENGINEERING ANALYSIS SYSTEM  RELEASE 15.0.7   Maintenance Release *****
 ANSYS Academic Teaching Advanced                  
 00313154          VERSION=WINDOWS x64   00:18:18  FEB 13, 2015 CP=      2.044

 Design Workbench--Static Structural (I5)                                      


          ***** ANSYS RESULTS INTERPRETATION (POST1) *****

 *** NOTE ***                            CP =       2.044   TIME= 00:18:18
 Reading results into the database (SET command) will update the current 
 displacement and force boundary conditions in the database with the     
 values from the results file for that load set.  Note that any          
 subsequent solutions will use these values unless action is taken to    
 either SAVE the current values or not overwrite them (/EXIT,NOSAVE).    

 Set Encoding of XML File to:ISO-8859-1

 Set Output of XML File to:
     PARM,     ,     ,     ,     ,     ,     ,     ,     ,     ,     ,     ,
         ,     ,     ,     ,     ,     ,     ,

 DATABASE WRITTEN ON FILE  parm.xml                                                                                                                                                                                                                                                            

 EXIT THE ANSYS POST1 DATABASE PROCESSOR


 ***** ROUTINE COMPLETED *****  CP =         2.044



 PRINTOUT RESUMED BY /GOP

 *GET  _WALLDONE  FROM  ACTI  ITEM=TIME WALL  VALUE= 0.305000000    

 PARAMETER _PREPTIME =     0.000000000    

 PARAMETER _SOLVTIME =     1.000000000    

 PARAMETER _POSTTIME =     0.000000000    

 PARAMETER _TOTALTIM =     1.000000000    

 EXIT ANSYS WITHOUT SAVING DATABASE


 NUMBER OF WARNING MESSAGES ENCOUNTERED=          3
 NUMBER OF ERROR   MESSAGES ENCOUNTERED=          0

+--------------------- A N S Y S   S T A T I S T I C S ------------------------+

Release: 15.0.7     Build: UP20140420   Platform: WINDOWS x64 
Date Run: 02/13/2015   Time: 00:18
Windows Process ID:         4128

Processor Model:        Intel(R) Core(TM) i5-3320M CPU @ 2.60GHz

Compiler: Intel(R) FORTRAN Compiler Version 12.1.0  (Build: 20120928)
          Microsoft(R) Visual C/C++ Compiler Version 16.0  (Build: 40219)
          Intel(R) Math Kernel Library Version 11.0.5 Product Build 20130612

Total number of cores available    :    4
Number of physical cores available :    2
Number of cores requested          :    2 (Shared Memory Parallel)

GPU Acceleration: Not Requested

Job Name: file
Working Directory: D:\MyDocs\Documents\GitHub\AgileRoboticControls\System Modelling\Mechanical\Finite Elements\_ProjectScratch\ScrAC3

Total CPU time for main thread                    :        1.5 seconds
Total CPU time summed for all threads             :        2.1 seconds

Elapsed time spent pre-processing model (/PREP7)  :        0.0 seconds
Elapsed time spent solution - preprocessing       :        0.0 seconds
Elapsed time spent computing solution             :        0.6 seconds
Elapsed time spent solution - postprocessing      :        0.0 seconds
Elapsed time spent post-processing model (/POST1) :        0.0 seconds

Equation solver computational rate                :     3407.6 Mflops

Maximum total memory used                         :       32.0 MB
Maximum total memory allocated                    :     1088.0 MB
Maximum total memory available                    :          4 GB

+------------------ E N D   A N S Y S   S T A T I S T I C S -------------------+


 *---------------------------------------------------------------------------*
 |                                                                           |
 |                            ANSYS RUN COMPLETED                            |
 |                                                                           |
 |---------------------------------------------------------------------------|
 |                                                                           |
 |            Release 15.0.7         UP20140420         WINDOWS x64          |
 |                                                                           |
 |---------------------------------------------------------------------------|
 |                                                                           |
 | Database Requested(-db)   512 MB    Scratch Memory Requested       512 MB |
 | Maximum Database Used       4 MB    Maximum Scratch Memory Used     28 MB |
 |                                                                           |
 |---------------------------------------------------------------------------|
 |                                                                           |
 |        CP Time      (sec) =          2.075       Time  =  00:18:18        |
 |        Elapsed Time (sec) =          6.000       Date  =  02/13/2015      |
 |                                                                           |
 *---------------------------------------------------------------------------*
