
 ANSYS Academic Teaching Advanced                  


 *------------------------------------------------------------------*
 |                                                                  |
 |   W E L C O M E   T O   T H E   A N S Y S (R)  P R O G R A M     |
 |                                                                  |
 *------------------------------------------------------------------*




 ***************************************************************
 *                  ANSYS 15.0 LEGAL NOTICES                   *
 ***************************************************************
 *                                                             *
 * Copyright 2014 SAS IP, Inc.  All rights reserved.           *
 * Unauthorized use, distribution or duplication is            *
 * prohibited.                                                 *
 *                                                             *
 * Ansys is a registered trademark of ANSYS, Inc. or its       *
 * subsidiaries in the United States or other countries.       *
 * See the ANSYS, Inc. online documentation or the ANSYS, Inc. *
 * documentation CD or online help for the complete Legal      *
 * Notice.                                                     *
 *                                                             *
 ***************************************************************
 *                                                             *
 * THIS ANSYS SOFTWARE PRODUCT AND PROGRAM DOCUMENTATION       *
 * INCLUDE TRADE SECRETS AND CONFIDENTIAL AND PROPRIETARY      *
 * PRODUCTS OF ANSYS, INC., ITS SUBSIDIARIES, OR LICENSORS.    *
 * The software products and documentation are furnished by    *
 * ANSYS, Inc. or its subsidiaries under a software license    *
 * agreement that contains provisions concerning               *
 * non-disclosure, copying, length and nature of use,          *
 * compliance with exporting laws, warranties, disclaimers,    *
 * limitations of liability, and remedies, and other           *
 * provisions.  The software products and documentation may be *
 * used, disclosed, transferred, or copied only in accordance  *
 * with the terms and conditions of that software license      *
 * agreement.                                                  *
 *                                                             *
 * ANSYS, Inc. is a UL registered                              *
 * ISO 9001:2008 company.                                      *
 *                                                             *
 ***************************************************************
 *                                                             *
 * This product is subject to U.S. laws governing export and   *
 * re-export.                                                  *
 *                                                             *
 * For U.S. Government users, except as specifically granted   *
 * by the ANSYS, Inc. software license agreement, the use,     *
 * duplication, or disclosure by the United States Government  *
 * is subject to restrictions stated in the ANSYS, Inc.        *
 * software license agreement and FAR 12.212 (for non-DOD      *
 * licenses).                                                  *
 *                                                             *
 ***************************************************************

 Point Releases and Patches installed:   
     
 ANSYS, Inc. Products 15.0.7 
 ANSYS Mechanical Products 15.0.7
 ANSYS Autodyn 15.0.7
 ANSYS LS-DYNA 15.0.7
 ANSYS CFX (includes ANSYS CFD-Post) 15.0.7  
 ANSYS Fluent (includes ANSYS CFD-Post) 15.0.7   
 ANSYS TurboGrid 15.0.7  
 ANSYS Polyflow (includes ANSYS CFD-Post) 15.0.7 
 ANSYS Aqwa 15.0.7   
 ANSYS ICEM CFD 15.0.7   
 ANSYS Icepak (includes ANSYS CFD-Post) 15.0.7   
 Catia, Version 6 15.0.7 
 ANSYS, Inc. License Manager 15.0.7  


          *****  ANSYS COMMAND LINE ARGUMENTS  *****
  BATCH MODE REQUESTED (-b)    = NOLIST
  INPUT FILE COPY MODE (-c)    = COPY
     2 PARALLEL CPUS REQUESTED
  DESIGNXPLORER REQUESTED
  START-UP FILE MODE           = NOREAD
  STOP FILE MODE               = NOREAD

 00313154          VERSION=WINDOWS x64     RELEASE= 15.0.7  Maintenance Release UP20140420
 CURRENT JOBNAME=file  13:33:26  FEB 23, 2015 CP=      1.061


 PARAMETER _DS_PROGRESS =     999.0000000    

 /INPUT FILE= ds.dat  LINE=       0

 *GET  _WALLSTRT  FROM  ACTI  ITEM=TIME WALL  VALUE=  13.5572222    

 TITLE= 
 Models--Static Structural (D5)                                                


 SET PARAMETER DIMENSIONS ON  _WB_PROJECTSCRATCH_DIR
  TYPE=STRI  DIMENSIONS=      248        1        1

 PARAMETER _WB_PROJECTSCRATCH_DIR(1) = D:\MyDocs\Documents\Senior\Fall\Senior Design 1\AgileRoboticControls\SolidWorks Models\ANSYS\_ProjectScratch\Scr415B\

 SET PARAMETER DIMENSIONS ON  _WB_SOLVERFILES_DIR
  TYPE=STRI  DIMENSIONS=      248        1        1

 PARAMETER _WB_SOLVERFILES_DIR(1) = D:\MyDocs\Documents\Senior\Fall\Senior Design 1\AgileRoboticControls\SolidWorks Models\ANSYS\Models_files\dp0\SYS-5\MECH\

 SET PARAMETER DIMENSIONS ON  _WB_USERFILES_DIR
  TYPE=STRI  DIMENSIONS=      248        1        1

 PARAMETER _WB_USERFILES_DIR(1) = D:\MyDocs\Documents\Senior\Fall\Senior Design 1\AgileRoboticControls\SolidWorks Models\ANSYS\Models_files\user_files\
 --- Data in consistent MKS units.

 MKS UNITS SPECIFIED FOR INTERNAL    
  LENGTH        (l)  = METER (M)
  MASS          (M)  = KILOGRAM (KG)
  TIME          (t)  = SECOND (SEC)
  TEMPERATURE   (T)  = CELSIUS (C)
  TOFFSET            = 273.0
  CHARGE        (Q)  = COULOMB
  FORCE         (f)  = NEWTON (N) (KG-M/SEC2)
  HEAT               = JOULE (N-M)

  PRESSURE           = PASCAL (NEWTON/M**2)
  ENERGY        (W)  = JOULE (N-M)
  POWER         (P)  = WATT (N-M/SEC)
  CURRENT       (i)  = AMPERE (COULOMBS/SEC)
  CAPACITANCE   (C)  = FARAD
  INDUCTANCE    (L)  = HENRY
  MAGNETIC FLUX      = WEBER
  RESISTANCE    (R)  = OHM
  ELECTRIC POTENTIAL = VOLT

 INPUT  UNITS ARE ALSO SET TO MKS 
1

 ***** ANSYS - ENGINEERING ANALYSIS SYSTEM  RELEASE 15.0.7   Maintenance Release *****
 ANSYS Academic Teaching Advanced                  
 00313154          VERSION=WINDOWS x64   13:33:26  FEB 23, 2015 CP=      1.154

 Models--Static Structural (D5)                                                


          ***** ANSYS ANALYSIS DEFINITION (PREP7) *****
 *********** Nodes for the whole assembly ***********
 *********** Elements for Body 1 "Body_2_Side" ***********
 *********** Elements for Body 2 "Body_2_Upright" ***********
 *********** Elements for Body 3 "Body_2_Angle" ***********
 *********** Elements for Body 4 "Body_2_Front" ***********
 *********** Elements for Body 5 "90_Degree_Plate" ***********
 *********** Elements for Body 6 "Shoulder_Plate" ***********
 *********** Elements for Body 7 "Piston_Plate2" ***********
 *********** Elements for Body 8 "Body_2_Upright" ***********
 *********** Elements for Body 9 "Body_2_Upright" ***********
 *********** Elements for Body 10 "Body_2_Back" ***********
 *********** Send User Defined Coordinate System(s) ***********
 *********** Set Reference Temperature ***********
 *********** Send Materials ***********
 *********** Create Contact "Contact Region" ***********
             Real Contact Set For Above Contact Is 12 & 11
 *********** Create Contact "Contact Region 2" ***********
             Real Contact Set For Above Contact Is 14 & 13
 *********** Create Contact "Contact Region 3" ***********
             Real Contact Set For Above Contact Is 16 & 15
 *********** Create Contact "Contact Region 4" ***********
             Real Contact Set For Above Contact Is 18 & 17
 *********** Create Contact "Contact Region 5" ***********
             Real Contact Set For Above Contact Is 20 & 19
 *********** Create Contact "Contact Region 6" ***********
             Real Contact Set For Above Contact Is 22 & 21
 *********** Create Contact "Contact Region 7" ***********
             Real Contact Set For Above Contact Is 24 & 23
 *********** Create Contact "Contact Region 8" ***********
             Real Contact Set For Above Contact Is 26 & 25
 *********** Create Contact "Contact Region 9" ***********
             Real Contact Set For Above Contact Is 28 & 27
 *********** Create Contact "Contact Region 10" ***********
             Real Contact Set For Above Contact Is 30 & 29
 *********** Fixed Supports ***********
 *********** Define Force Using Surface Effect Elements ***********
 *********** Define Force Using Surface Effect Elements ***********


 ***** ROUTINE COMPLETED *****  CP =         1.981


 --- Number of total nodes = 139702
 --- Number of contact elements = 1696
 --- Number of spring elements = 0
 --- Number of bearing elements = 0
 --- Number of solid elements = 24748
 --- Number of total elements = 26444

 *GET  _WALLBSOL  FROM  ACTI  ITEM=TIME WALL  VALUE=  13.5572222    
 ****************************************************************************
 *************************    SOLUTION       ********************************
 ****************************************************************************

 *****  ANSYS SOLUTION ROUTINE  *****


 PERFORM A STATIC ANALYSIS
  THIS WILL BE A NEW ANALYSIS

 USE A MAXIMUM OF     1 EQUILIBRIUM ITERATIONS EACH SUBSTEP

 *** WARNING ***                         CP =       2.012   TIME= 13:33:26
 Using 1 iteration per substep may result in unconverged solutions for   
 nonlinear analysis and the program may not indicate divergence in this  
 case.  Check your results.                                              

 DO NOT USE PREDICTOR METHOD FOR  ALL DEGREES OF FREEDOM

 USE SPARSE MATRIX DIRECT SOLVER

 CONTACT INFORMATION PRINTOUT LEVEL       1

 NLDIAG: Nonlinear diagnostics CONT option is set to ON. 
         Writing frequency : each ITERATION.

 DO NOT SAVE ANY RESTART FILES AT ALL
 ****************************************************
 ******************* SOLVE FOR LS 1 ****************

 SELECT       FOR ITEM=TYPE COMPONENT=    
  IN RANGE        31 TO         31 STEP          1

         76  ELEMENTS (OF      26444  DEFINED) SELECTED BY  ESEL  COMMAND.

 SELECT      ALL NODES HAVING ANY ELEMENT IN ELEMENT SET.

      176 NODES (OF   139702  DEFINED) SELECTED FROM
       76 SELECTED ELEMENTS BY NSLE COMMAND.

 SPECIFIED SURFACE LOAD PRES FOR ALL SELECTED ELEMENTS  LKEY =  1   KVAL = 1
      SET ACCORDING TO TABLE PARAMETER = _LOADVARI87X                    

 SPECIFIED SURFACE LOAD PRES FOR ALL SELECTED ELEMENTS  LKEY =  2   KVAL = 1
      SET ACCORDING TO TABLE PARAMETER = _LOADVARI87Y                    

 SPECIFIED SURFACE LOAD PRES FOR ALL SELECTED ELEMENTS  LKEY =  3   KVAL = 1
      SET ACCORDING TO TABLE PARAMETER = _LOADVARI87Z                    

 SELECT       FOR ITEM=TYPE COMPONENT=    
  IN RANGE        32 TO         32 STEP          1

         44  ELEMENTS (OF      26444  DEFINED) SELECTED BY  ESEL  COMMAND.

 SELECT      ALL NODES HAVING ANY ELEMENT IN ELEMENT SET.

      120 NODES (OF   139702  DEFINED) SELECTED FROM
       44 SELECTED ELEMENTS BY NSLE COMMAND.

 SPECIFIED SURFACE LOAD PRES FOR ALL SELECTED ELEMENTS  LKEY =  1   KVAL = 1
      SET ACCORDING TO TABLE PARAMETER = _LOADVARI89X                    

 SPECIFIED SURFACE LOAD PRES FOR ALL SELECTED ELEMENTS  LKEY =  2   KVAL = 1
      SET ACCORDING TO TABLE PARAMETER = _LOADVARI89Y                    

 SPECIFIED SURFACE LOAD PRES FOR ALL SELECTED ELEMENTS  LKEY =  3   KVAL = 1
      SET ACCORDING TO TABLE PARAMETER = _LOADVARI89Z                    

 ALL SELECT   FOR ITEM=NODE COMPONENT=    
  IN RANGE         1 TO     139702 STEP          1

     139702  NODES (OF     139702  DEFINED) SELECTED BY NSEL  COMMAND.

 ALL SELECT   FOR ITEM=ELEM COMPONENT=    
  IN RANGE         1 TO      26444 STEP          1

      26444  ELEMENTS (OF      26444  DEFINED) SELECTED BY  ESEL  COMMAND.

 PRINTOUT RESUMED BY /GOP

 USE       1 SUBSTEPS INITIALLY THIS LOAD STEP FOR ALL  DEGREES OF FREEDOM
 FOR AUTOMATIC TIME STEPPING:
   USE      1 SUBSTEPS AS A MAXIMUM
   USE      1 SUBSTEPS AS A MINIMUM

 TIME=  1.0000    

 ERASE THE CURRENT DATABASE OUTPUT CONTROL TABLE.


 WRITE ALL  ITEMS TO THE DATABASE WITH A FREQUENCY OF NONE
   FOR ALL APPLICABLE ENTITIES

 WRITE NSOL ITEMS TO THE DATABASE WITH A FREQUENCY OF ALL 
   FOR ALL APPLICABLE ENTITIES

 WRITE RSOL ITEMS TO THE DATABASE WITH A FREQUENCY OF ALL 
   FOR ALL APPLICABLE ENTITIES

 WRITE STRS ITEMS TO THE DATABASE WITH A FREQUENCY OF ALL 
   FOR ALL APPLICABLE ENTITIES

 WRITE EPEL ITEMS TO THE DATABASE WITH A FREQUENCY OF ALL 
   FOR ALL APPLICABLE ENTITIES

 WRITE EPPL ITEMS TO THE DATABASE WITH A FREQUENCY OF ALL 
   FOR ALL APPLICABLE ENTITIES

 NONLINEAR STABILIZATION CONTROL:
 KEY=OFF 


 *GET  ANSINTER_  FROM  ACTI  ITEM=INT        VALUE=  0.00000000    

 *IF  ANSINTER_                         ( =   0.00000     )  NE  
      0                                 ( =   0.00000     )  THEN    

 *ENDIF

 *****  ANSYS SOLVE    COMMAND  *****

 *** WARNING ***                         CP =       2.044   TIME= 13:33:26
 Element shape checking is currently inactive.  Issue SHPP,ON or         
 SHPP,WARN to reactivate, if desired.                                    

 *** WARNING ***                         CP =       2.137   TIME= 13:33:26
 SOLID186 wedges are recommended only in regions of relatively low       
 stress gradients.                                                       

 *** NOTE ***                            CP =       2.200   TIME= 13:33:26
 The model data was checked and warning messages were found.             
  Please review output or errors file (                                  
 D:\MyDocs\Documents\Senior\Fall\Senior Design                           
 1\AgileRoboticControls\SolidWorks                                       
 Models\ANSYS\_ProjectScratch\Scr415B\file.err ) for these warning       
 messages.                                                               

 *** SELECTION OF ELEMENT TECHNOLOGIES FOR APPLICABLE ELEMENTS ***
      --- GIVE SUGGESTIONS AND RESET THE KEY OPTIONS ---

 ELEMENT TYPE    1 IS SOLID186. KEYOPT(2)=0 IS SUGGESTED AND HAS BEEN RESET.
  KEYOPT(1-12)=    0    0    0    0    0    0    0    0    0    0    0    0

 ELEMENT TYPE    2 IS SOLID186. KEYOPT(2)=0 IS SUGGESTED AND HAS BEEN RESET.
  KEYOPT(1-12)=    0    0    0    0    0    0    0    0    0    0    0    0

 ELEMENT TYPE    3 IS SOLID186. KEYOPT(2)=0 IS SUGGESTED AND HAS BEEN RESET.
  KEYOPT(1-12)=    0    0    0    0    0    0    0    0    0    0    0    0

 ELEMENT TYPE    4 IS SOLID186. KEYOPT(2)=0 IS SUGGESTED AND HAS BEEN RESET.
  KEYOPT(1-12)=    0    0    0    0    0    0    0    0    0    0    0    0

 ELEMENT TYPE    5 IS SOLID187. IT IS NOT ASSOCIATED WITH FULLY INCOMPRESSIBLE
 HYPERELASTIC MATERIALS. NO SUGGESTION IS AVAILABLE AND NO RESETTING IS NEEDED.

 ELEMENT TYPE    6 IS SOLID187. IT IS NOT ASSOCIATED WITH FULLY INCOMPRESSIBLE
 HYPERELASTIC MATERIALS. NO SUGGESTION IS AVAILABLE AND NO RESETTING IS NEEDED.

 ELEMENT TYPE    7 IS SOLID187. IT IS NOT ASSOCIATED WITH FULLY INCOMPRESSIBLE
 HYPERELASTIC MATERIALS. NO SUGGESTION IS AVAILABLE AND NO RESETTING IS NEEDED.

 ELEMENT TYPE    8 IS SOLID186. KEYOPT(2)=0 IS SUGGESTED AND HAS BEEN RESET.
  KEYOPT(1-12)=    0    0    0    0    0    0    0    0    0    0    0    0

 ELEMENT TYPE    9 IS SOLID186. KEYOPT(2)=0 IS SUGGESTED AND HAS BEEN RESET.
  KEYOPT(1-12)=    0    0    0    0    0    0    0    0    0    0    0    0

 ELEMENT TYPE   10 IS SOLID186. KEYOPT(2)=0 IS SUGGESTED AND HAS BEEN RESET.
  KEYOPT(1-12)=    0    0    0    0    0    0    0    0    0    0    0    0


1

 ***** ANSYS - ENGINEERING ANALYSIS SYSTEM  RELEASE 15.0.7   Maintenance Release *****
 ANSYS Academic Teaching Advanced                  
 00313154          VERSION=WINDOWS x64   13:33:27  FEB 23, 2015 CP=      2.231

 Models--Static Structural (D5)                                                


                       S O L U T I O N   O P T I O N S

   PROBLEM DIMENSIONALITY. . . . . . . . . . . . .3-D                  
   DEGREES OF FREEDOM. . . . . . UX   UY   UZ  
   ANALYSIS TYPE . . . . . . . . . . . . . . . . .STATIC (STEADY-STATE)
   OFFSET TEMPERATURE FROM ABSOLUTE ZERO . . . . .  273.15    
   EQUATION SOLVER OPTION. . . . . . . . . . . . .SPARSE             
   NEWTON-RAPHSON OPTION . . . . . . . . . . . . .PROGRAM CHOSEN   
   GLOBALLY ASSEMBLED MATRIX . . . . . . . . . . .SYMMETRIC  

 *** WARNING ***                         CP =       2.293   TIME= 13:33:27
 Material number 12 (used by element 24749 ) should normally have at     
 least one MP or one TB type command associated with it.  Output of      
 energy by material may not be available.                                

 *** NOTE ***                            CP =       2.356   TIME= 13:33:27
 The step data was checked and warning messages were found.              
  Please review output or errors file (                                  
 D:\MyDocs\Documents\Senior\Fall\Senior Design                           
 1\AgileRoboticControls\SolidWorks                                       
 Models\ANSYS\_ProjectScratch\Scr415B\file.err ) for these warning       
 messages.                                                               

 *** NOTE ***                            CP =       2.356   TIME= 13:33:27
 This nonlinear analysis defaults to using the full Newton-Raphson       
 solution procedure.  This can be modified using the NROPT command.      

 *** NOTE ***                            CP =       2.356   TIME= 13:33:27
 The conditions for direct assembly have been met.  No .emat or .erot    
 files will be produced.                                                 

                      L O A D   S T E P   O P T I O N S

   LOAD STEP NUMBER. . . . . . . . . . . . . . . .     1
   TIME AT END OF THE LOAD STEP. . . . . . . . . .  1.0000    
   AUTOMATIC TIME STEPPING . . . . . . . . . . . .    ON
      INITIAL NUMBER OF SUBSTEPS . . . . . . . . .     1
      MAXIMUM NUMBER OF SUBSTEPS . . . . . . . . .     1
      MINIMUM NUMBER OF SUBSTEPS . . . . . . . . .     1
   MAXIMUM NUMBER OF EQUILIBRIUM ITERATIONS. . . .     1
   STEP CHANGE BOUNDARY CONDITIONS . . . . . . . .    NO
   TERMINATE ANALYSIS IF NOT CONVERGED . . . . . .YES (EXIT)  
   CONVERGENCE CONTROLS. . . . . . . . . . . . . .USE DEFAULTS
   PRINT OUTPUT CONTROLS . . . . . . . . . . . . .NO PRINTOUT
   DATABASE OUTPUT CONTROLS
      ITEM     FREQUENCY   COMPONENT
       ALL       NONE               
      NSOL        ALL               
      RSOL        ALL               
      STRS        ALL               
      EPEL        ALL               
      EPPL        ALL               


 SOLUTION MONITORING INFO IS WRITTEN TO FILE= file.mntr                                                                                                                                                                                                                                                           

 *** NOTE ***                            CP =       3.385   TIME= 13:33:27
 It is highly recommended to use the auto contact setting option by      
 issuing CNCHECK,AUTO command for this problem in order to achieve       
 better convergence.                                                     

 *** NOTE ***                            CP =       3.385   TIME= 13:33:27
 Symmetric Deformable- deformable contact pair identified by real        
 constant set 11 and contact element type 11 has been set up.  The       
 companion pair has real constant set ID 12.  Both pairs should have     
 the same behavior.                                                      
 ANSYS will deactivate the current pair and keep its companion pair,     
 resulting in asymmetric contact.                                        
 Contact algorithm: Augmented Lagrange method
 Contact detection at: Gauss integration point
 Contact stiffness factor FKN                  10.000    
 The resulting initial contact stiffness      0.12060E+16
 Default penetration tolerance factor FTOLN   0.10000    
 The resulting penetration tolerance          0.16717E-03
 Default opening contact stiffness OPSF will be used.
 Default tangent stiffness factor FKT          1.0000    
 Default elastic slip factor SLTOL            0.50000E-02
 The resulting elastic slip                   0.18368E-04
 Update contact stiffness at each iteration
 Default Max. friction stress TAUMAX          0.10000E+21
 Average contact surface length               0.36736E-02
 Average contact pair depth                   0.16717E-02
 Default pinball region factor PINB           0.25000    
 The resulting pinball region                 0.41792E-03
 Initial penetration/gap is excluded.
 Bonded contact (always) is defined.

 *** NOTE ***                            CP =       3.401   TIME= 13:33:27
 Max.  Initial penetration 2.775557562E-17 was detected between contact  
 element 24770 and target element 24861.                                 
 ****************************************
  

 *** NOTE ***                            CP =       3.401   TIME= 13:33:27
 Symmetric Deformable- deformable contact pair identified by real        
 constant set 12 and contact element type 11 has been set up.  The       
 companion pair has real constant set ID 11.  Both pairs should have     
 the same behavior.                                                      
 ANSYS will keep the current pair and deactivate its companion pair,     
 resulting in asymmetric contact.                                        
 Contact algorithm: Augmented Lagrange method
 Contact detection at: Gauss integration point
 Contact stiffness factor FKN                  10.000    
 The resulting initial contact stiffness      0.12060E+16
 Default penetration tolerance factor FTOLN   0.10000    
 The resulting penetration tolerance          0.43478E-03
 Default opening contact stiffness OPSF will be used.
 Default tangent stiffness factor FKT          1.0000    
 Default elastic slip factor SLTOL            0.50000E-02
 The resulting elastic slip                   0.17180E-04
 Update contact stiffness at each iteration
 Default Max. friction stress TAUMAX          0.10000E+21
 Average contact surface length               0.34361E-02
 Average contact pair depth                   0.43478E-02
 Default pinball region factor PINB           0.25000    
 The resulting pinball region                 0.10870E-02
 Initial penetration/gap is excluded.
 Bonded contact (always) is defined.

 *** NOTE ***                            CP =       3.401   TIME= 13:33:27
 Max.  Initial penetration 5.551115123E-17 was detected between contact  
 element 24814 and target element 24755.                                 
 ****************************************
  

 *** NOTE ***                            CP =       3.401   TIME= 13:33:27
 Symmetric Deformable- deformable contact pair identified by real        
 constant set 13 and contact element type 13 has been set up.  The       
 companion pair has real constant set ID 14.  Both pairs should have     
 the same behavior.                                                      
 ANSYS will keep the current pair and deactivate its companion pair,     
 resulting in asymmetric contact.                                        
 Contact algorithm: Augmented Lagrange method
 Contact detection at: Gauss integration point
 Contact stiffness factor FKN                  10.000    
 The resulting initial contact stiffness      0.16837E+16
 Default penetration tolerance factor FTOLN   0.10000    
 The resulting penetration tolerance          0.31087E-03
 Default opening contact stiffness OPSF will be used.
 Default tangent stiffness factor FKT          1.0000    
 Default elastic slip factor SLTOL            0.50000E-02
 The resulting elastic slip                   0.13866E-04
 Update contact stiffness at each iteration
 Default Max. friction stress TAUMAX          0.10000E+21
 Average contact surface length               0.27732E-02
 Average contact pair depth                   0.31087E-02
 Default pinball region factor PINB           0.25000    
 The resulting pinball region                 0.77717E-03
 Initial penetration/gap is excluded.
 Bonded contact (always) is defined.

 *** NOTE ***                            CP =       3.401   TIME= 13:33:27
 Max.  Initial penetration 4.057540622E-11 was detected between contact  
 element 24922 and target element 25051.                                 
 ****************************************
  

 *** NOTE ***                            CP =       3.401   TIME= 13:33:27
 Symmetric Deformable- deformable contact pair identified by real        
 constant set 14 and contact element type 13 has been set up.  The       
 companion pair has real constant set ID 13.  Both pairs should have     
 the same behavior.                                                      
 ANSYS will deactivate the current pair and keep its companion pair,     
 resulting in asymmetric contact.                                        
 Contact algorithm: Augmented Lagrange method
 Contact detection at: Gauss integration point
 Contact stiffness factor FKN                  10.000    
 The resulting initial contact stiffness      0.16837E+16
 Default penetration tolerance factor FTOLN   0.10000    
 The resulting penetration tolerance          0.31142E-03
 Default opening contact stiffness OPSF will be used.
 Default tangent stiffness factor FKT          1.0000    
 Default elastic slip factor SLTOL            0.50000E-02
 The resulting elastic slip                   0.13988E-04
 Update contact stiffness at each iteration
 Default Max. friction stress TAUMAX          0.10000E+21
 Average contact surface length               0.27975E-02
 Average contact pair depth                   0.31142E-02
 Default pinball region factor PINB           0.25000    
 The resulting pinball region                 0.77856E-03
 Initial penetration/gap is excluded.
 Bonded contact (always) is defined.

 *** NOTE ***                            CP =       3.401   TIME= 13:33:27
 Max.  Initial penetration 2.594895623E-11 was detected between contact  
 element 24974 and target element 24915.                                 
 ****************************************
  

 *** NOTE ***                            CP =       3.401   TIME= 13:33:27
 Symmetric Deformable- deformable contact pair identified by real        
 constant set 15 and contact element type 15 has been set up.  The       
 companion pair has real constant set ID 16.  Both pairs should have     
 the same behavior.                                                      
 ANSYS will keep the current pair and deactivate its companion pair,     
 resulting in asymmetric contact.                                        
 Contact algorithm: Augmented Lagrange method
 Contact detection at: Gauss integration point
 Contact stiffness factor FKN                  10.000    
 The resulting initial contact stiffness      0.13098E+16
 Default penetration tolerance factor FTOLN   0.10000    
 The resulting penetration tolerance          0.19604E-03
 Default opening contact stiffness OPSF will be used.
 Default tangent stiffness factor FKT          1.0000    
 Default elastic slip factor SLTOL            0.50000E-02
 The resulting elastic slip                   0.23457E-04
 Update contact stiffness at each iteration
 Default Max. friction stress TAUMAX          0.10000E+21
 Average contact surface length               0.46913E-02
 Average contact pair depth                   0.19604E-02
 Default pinball region factor PINB           0.25000    
 The resulting pinball region                 0.49010E-03
 Initial penetration/gap is excluded.
 Bonded contact (always) is defined.

 *** NOTE ***                            CP =       3.401   TIME= 13:33:27
 Max.  Initial penetration 5.551115123E-17 was detected between contact  
 element 25163 and target element 25220.                                 
 ****************************************
  

 *** NOTE ***                            CP =       3.401   TIME= 13:33:27
 Symmetric Deformable- deformable contact pair identified by real        
 constant set 16 and contact element type 15 has been set up.  The       
 companion pair has real constant set ID 15.  Both pairs should have     
 the same behavior.                                                      
 ANSYS will deactivate the current pair and keep its companion pair,     
 resulting in asymmetric contact.                                        
 Contact algorithm: Augmented Lagrange method
 Contact detection at: Gauss integration point
 Contact stiffness factor FKN                  10.000    
 The resulting initial contact stiffness      0.13098E+16
 Default penetration tolerance factor FTOLN   0.10000    
 The resulting penetration tolerance          0.40030E-03
 Default opening contact stiffness OPSF will be used.
 Default tangent stiffness factor FKT          1.0000    
 Default elastic slip factor SLTOL            0.50000E-02
 The resulting elastic slip                   0.59707E-04
 Update contact stiffness at each iteration
 Default Max. friction stress TAUMAX          0.10000E+21
 Average contact surface length               0.11941E-01
 Average contact pair depth                   0.40030E-02
 Default pinball region factor PINB           0.25000    
 The resulting pinball region                 0.10008E-02
 Initial penetration/gap is excluded.
 Bonded contact (always) is defined.

 *** NOTE ***                            CP =       3.401   TIME= 13:33:27
 Max.  Initial penetration 5.551115123E-17 was detected between contact  
 element 25202 and target element 25057.                                 
 ****************************************
  

 *** NOTE ***                            CP =       3.401   TIME= 13:33:27
 Symmetric Deformable- deformable contact pair identified by real        
 constant set 17 and contact element type 17 has been set up.  The       
 companion pair has real constant set ID 18.  Both pairs should have     
 the same behavior.                                                      
 ANSYS will keep the current pair and deactivate its companion pair,     
 resulting in asymmetric contact.                                        
 Contact algorithm: Augmented Lagrange method
 Contact detection at: Gauss integration point
 Contact stiffness factor FKN                  10.000    
 The resulting initial contact stiffness      0.17177E+16
 Default penetration tolerance factor FTOLN   0.10000    
 The resulting penetration tolerance          0.19604E-03
 Default opening contact stiffness OPSF will be used.
 Default tangent stiffness factor FKT          1.0000    
 Default elastic slip factor SLTOL            0.50000E-02
 The resulting elastic slip                   0.23457E-04
 Update contact stiffness at each iteration
 Default Max. friction stress TAUMAX          0.10000E+21
 Average contact surface length               0.46913E-02
 Average contact pair depth                   0.19604E-02
 Default pinball region factor PINB           0.25000    
 The resulting pinball region                 0.49010E-03
 Initial penetration/gap is excluded.
 Bonded contact (always) is defined.

 *** NOTE ***                            CP =       3.401   TIME= 13:33:27
 Max.  Initial penetration 2.775557562E-17 was detected between contact  
 element 25352 and target element 25406.                                 
 ****************************************
  

 *** NOTE ***                            CP =       3.401   TIME= 13:33:27
 Symmetric Deformable- deformable contact pair identified by real        
 constant set 18 and contact element type 17 has been set up.  The       
 companion pair has real constant set ID 17.  Both pairs should have     
 the same behavior.                                                      
 ANSYS will deactivate the current pair and keep its companion pair,     
 resulting in asymmetric contact.                                        
 Contact algorithm: Augmented Lagrange method
 Contact detection at: Gauss integration point
 Contact stiffness factor FKN                  10.000    
 The resulting initial contact stiffness      0.17177E+16
 Default penetration tolerance factor FTOLN   0.10000    
 The resulting penetration tolerance          0.30526E-03
 Default opening contact stiffness OPSF will be used.
 Default tangent stiffness factor FKT          1.0000    
 Default elastic slip factor SLTOL            0.50000E-02
 The resulting elastic slip                   0.49195E-04
 Update contact stiffness at each iteration
 Default Max. friction stress TAUMAX          0.10000E+21
 Average contact surface length               0.98390E-02
 Average contact pair depth                   0.30526E-02
 Default pinball region factor PINB           0.25000    
 The resulting pinball region                 0.76315E-03
 Initial penetration/gap is excluded.
 Bonded contact (always) is defined.

 *** NOTE ***                            CP =       3.401   TIME= 13:33:27
 Max.  Initial penetration 2.775557562E-17 was detected between contact  
 element 25372 and target element 25269.                                 
 ****************************************
  

 *** NOTE ***                            CP =       3.401   TIME= 13:33:27
 Symmetric Deformable- deformable contact pair identified by real        
 constant set 19 and contact element type 19 has been set up.  The       
 companion pair has real constant set ID 20.  Both pairs should have     
 the same behavior.                                                      
 ANSYS will keep the current pair and deactivate its companion pair,     
 resulting in asymmetric contact.                                        
 Contact algorithm: Augmented Lagrange method
 Contact detection at: Gauss integration point
 Contact stiffness factor FKN                  10.000    
 The resulting initial contact stiffness      0.15322E+16
 Default penetration tolerance factor FTOLN   0.10000    
 The resulting penetration tolerance          0.19604E-03
 Default opening contact stiffness OPSF will be used.
 Default tangent stiffness factor FKT          1.0000    
 Default elastic slip factor SLTOL            0.50000E-02
 The resulting elastic slip                   0.23457E-04
 Update contact stiffness at each iteration
 Default Max. friction stress TAUMAX          0.10000E+21
 Average contact surface length               0.46913E-02
 Average contact pair depth                   0.19604E-02
 Default pinball region factor PINB           0.25000    
 The resulting pinball region                 0.49010E-03
 Initial penetration/gap is excluded.
 Bonded contact (always) is defined.

 *** NOTE ***                            CP =       3.401   TIME= 13:33:27
 Max.  Initial penetration 2.775557562E-17 was detected between contact  
 element 25449 and target element 25547.                                 
 ****************************************
  

 *** NOTE ***                            CP =       3.401   TIME= 13:33:27
 Symmetric Deformable- deformable contact pair identified by real        
 constant set 20 and contact element type 19 has been set up.  The       
 companion pair has real constant set ID 19.  Both pairs should have     
 the same behavior.                                                      
 ANSYS will deactivate the current pair and keep its companion pair,     
 resulting in asymmetric contact.                                        
 Contact algorithm: Augmented Lagrange method
 Contact detection at: Gauss integration point
 Contact stiffness factor FKN                  10.000    
 The resulting initial contact stiffness      0.15322E+16
 Default penetration tolerance factor FTOLN   0.10000    
 The resulting penetration tolerance          0.34220E-03
 Default opening contact stiffness OPSF will be used.
 Default tangent stiffness factor FKT          1.0000    
 Default elastic slip factor SLTOL            0.50000E-02
 The resulting elastic slip                   0.44031E-04
 Update contact stiffness at each iteration
 Default Max. friction stress TAUMAX          0.10000E+21
 Average contact surface length               0.88062E-02
 Average contact pair depth                   0.34220E-02
 Default pinball region factor PINB           0.25000    
 The resulting pinball region                 0.85551E-03
 Initial penetration/gap is excluded.
 Bonded contact (always) is defined.

 *** NOTE ***                            CP =       3.401   TIME= 13:33:27
 Max.  Initial penetration 2.775557562E-17 was detected between contact  
 element 25519 and target element 25435.                                 
 ****************************************
  

 *** NOTE ***                            CP =       3.401   TIME= 13:33:27
 Symmetric Deformable- deformable contact pair identified by real        
 constant set 21 and contact element type 21 has been set up.  The       
 companion pair has real constant set ID 22.  Both pairs should have     
 the same behavior.                                                      
 ANSYS will deactivate the current pair and keep its companion pair,     
 resulting in asymmetric contact.                                        
 Contact algorithm: Augmented Lagrange method
 Contact detection at: Gauss integration point
 Contact stiffness factor FKN                  10.000    
 The resulting initial contact stiffness      0.12060E+16
 Default penetration tolerance factor FTOLN   0.10000    
 The resulting penetration tolerance          0.16592E-03
 Default opening contact stiffness OPSF will be used.
 Default tangent stiffness factor FKT          1.0000    
 Default elastic slip factor SLTOL            0.50000E-02
 The resulting elastic slip                   0.18759E-04
 Update contact stiffness at each iteration
 Default Max. friction stress TAUMAX          0.10000E+21
 Average contact surface length               0.37519E-02
 Average contact pair depth                   0.16592E-02
 Default pinball region factor PINB           0.25000    
 The resulting pinball region                 0.41480E-03
 Initial penetration/gap is excluded.
 Bonded contact (always) is defined.

 *** NOTE ***                            CP =       3.401   TIME= 13:33:27
 Max.  Initial penetration 2.775557562E-17 was detected between contact  
 element 25604 and target element 25699.                                 
 ****************************************
  

 *** NOTE ***                            CP =       3.401   TIME= 13:33:27
 Symmetric Deformable- deformable contact pair identified by real        
 constant set 22 and contact element type 21 has been set up.  The       
 companion pair has real constant set ID 21.  Both pairs should have     
 the same behavior.                                                      
 ANSYS will keep the current pair and deactivate its companion pair,     
 resulting in asymmetric contact.                                        
 Contact algorithm: Augmented Lagrange method
 Contact detection at: Gauss integration point
 Contact stiffness factor FKN                  10.000    
 The resulting initial contact stiffness      0.12060E+16
 Default penetration tolerance factor FTOLN   0.10000    
 The resulting penetration tolerance          0.43478E-03
 Default opening contact stiffness OPSF will be used.
 Default tangent stiffness factor FKT          1.0000    
 Default elastic slip factor SLTOL            0.50000E-02
 The resulting elastic slip                   0.17256E-04
 Update contact stiffness at each iteration
 Default Max. friction stress TAUMAX          0.10000E+21
 Average contact surface length               0.34513E-02
 Average contact pair depth                   0.43478E-02
 Default pinball region factor PINB           0.25000    
 The resulting pinball region                 0.10870E-02
 Initial penetration/gap is excluded.
 Bonded contact (always) is defined.

 *** NOTE ***                            CP =       3.401   TIME= 13:33:27
 Max.  Initial penetration 5.551115123E-17 was detected between contact  
 element 25660 and target element 25632.                                 
 ****************************************
  

 *** NOTE ***                            CP =       3.401   TIME= 13:33:27
 Symmetric Deformable- deformable contact pair identified by real        
 constant set 23 and contact element type 23 has been set up.  The       
 companion pair has real constant set ID 24.  Both pairs should have     
 the same behavior.                                                      
 ANSYS will deactivate the current pair and keep its companion pair,     
 resulting in asymmetric contact.                                        
 Contact algorithm: Augmented Lagrange method
 Contact detection at: Gauss integration point
 Contact stiffness factor FKN                  10.000    
 The resulting initial contact stiffness      0.12060E+16
 Default penetration tolerance factor FTOLN   0.10000    
 The resulting penetration tolerance          0.19351E-03
 Default opening contact stiffness OPSF will be used.
 Default tangent stiffness factor FKT          1.0000    
 Default elastic slip factor SLTOL            0.50000E-02
 The resulting elastic slip                   0.18343E-04
 Update contact stiffness at each iteration
 Default Max. friction stress TAUMAX          0.10000E+21
 Average contact surface length               0.36685E-02
 Average contact pair depth                   0.19351E-02
 Default pinball region factor PINB           0.25000    
 The resulting pinball region                 0.48376E-03
 Initial penetration/gap is excluded.
 Bonded contact (always) is defined.

 *** NOTE ***                            CP =       3.401   TIME= 13:33:27
 Max.  Initial penetration 8.326672685E-17 was detected between contact  
 element 25743 and target element 25861.                                 
 ****************************************
  

 *** NOTE ***                            CP =       3.401   TIME= 13:33:27
 Symmetric Deformable- deformable contact pair identified by real        
 constant set 24 and contact element type 23 has been set up.  The       
 companion pair has real constant set ID 23.  Both pairs should have     
 the same behavior.                                                      
 ANSYS will keep the current pair and deactivate its companion pair,     
 resulting in asymmetric contact.                                        
 Contact algorithm: Augmented Lagrange method
 Contact detection at: Gauss integration point
 Contact stiffness factor FKN                  10.000    
 The resulting initial contact stiffness      0.12060E+16
 Default penetration tolerance factor FTOLN   0.10000    
 The resulting penetration tolerance          0.43478E-03
 Default opening contact stiffness OPSF will be used.
 Default tangent stiffness factor FKT          1.0000    
 Default elastic slip factor SLTOL            0.50000E-02
 The resulting elastic slip                   0.17973E-04
 Update contact stiffness at each iteration
 Default Max. friction stress TAUMAX          0.10000E+21
 Average contact surface length               0.35946E-02
 Average contact pair depth                   0.43478E-02
 Default pinball region factor PINB           0.25000    
 The resulting pinball region                 0.10870E-02
 Initial penetration/gap is excluded.
 Bonded contact (always) is defined.

 *** NOTE ***                            CP =       3.401   TIME= 13:33:27
 Max.  Initial penetration 8.326672685E-17 was detected between contact  
 element 25799 and target element 25766.                                 
 ****************************************
  

 *** NOTE ***                            CP =       3.401   TIME= 13:33:27
 Symmetric Deformable- deformable contact pair identified by real        
 constant set 25 and contact element type 25 has been set up.  The       
 companion pair has real constant set ID 26.  Both pairs should have     
 the same behavior.                                                      
 ANSYS will keep the current pair and deactivate its companion pair,     
 resulting in asymmetric contact.                                        
 Contact algorithm: Augmented Lagrange method
 Contact detection at: Gauss integration point
 Contact stiffness factor FKN                  10.000    
 The resulting initial contact stiffness      0.13187E+16
 Default penetration tolerance factor FTOLN   0.10000    
 The resulting penetration tolerance          0.15942E-03
 Default opening contact stiffness OPSF will be used.
 Default tangent stiffness factor FKT          1.0000    
 Default elastic slip factor SLTOL            0.50000E-02
 The resulting elastic slip                   0.26571E-04
 Update contact stiffness at each iteration
 Default Max. friction stress TAUMAX          0.10000E+21
 Average contact surface length               0.53142E-02
 Average contact pair depth                   0.15942E-02
 Default pinball region factor PINB           0.25000    
 The resulting pinball region                 0.39856E-03
 Initial penetration/gap is excluded.
 Bonded contact (always) is defined.

 *** NOTE ***                            CP =       3.401   TIME= 13:33:27
 Max.  Initial penetration 2.775557562E-17 was detected between contact  
 element 25904 and target element 25957.                                 
 ****************************************
  

 *** NOTE ***                            CP =       3.401   TIME= 13:33:27
 Symmetric Deformable- deformable contact pair identified by real        
 constant set 26 and contact element type 25 has been set up.  The       
 companion pair has real constant set ID 25.  Both pairs should have     
 the same behavior.                                                      
 ANSYS will deactivate the current pair and keep its companion pair,     
 resulting in asymmetric contact.                                        
 Contact algorithm: Augmented Lagrange method
 Contact detection at: Gauss integration point
 Contact stiffness factor FKN                  10.000    
 The resulting initial contact stiffness      0.13187E+16
 Default penetration tolerance factor FTOLN   0.10000    
 The resulting penetration tolerance          0.39762E-03
 Default opening contact stiffness OPSF will be used.
 Default tangent stiffness factor FKT          1.0000    
 Default elastic slip factor SLTOL            0.50000E-02
 The resulting elastic slip                   0.60633E-04
 Update contact stiffness at each iteration
 Default Max. friction stress TAUMAX          0.10000E+21
 Average contact surface length               0.12127E-01
 Average contact pair depth                   0.39762E-02
 Default pinball region factor PINB           0.25000    
 The resulting pinball region                 0.99406E-03
 Initial penetration/gap is excluded.
 Bonded contact (always) is defined.

 *** NOTE ***                            CP =       3.401   TIME= 13:33:27
 Max.  Initial penetration 2.775557562E-17 was detected between contact  
 element 25909 and target element 25873.                                 
 ****************************************
  

 *** NOTE ***                            CP =       3.401   TIME= 13:33:27
 Symmetric Deformable- deformable contact pair identified by real        
 constant set 27 and contact element type 27 has been set up.  The       
 companion pair has real constant set ID 28.  Both pairs should have     
 the same behavior.                                                      
 ANSYS will deactivate the current pair and keep its companion pair,     
 resulting in asymmetric contact.                                        
 Contact algorithm: Augmented Lagrange method
 Contact detection at: Gauss integration point
 Contact stiffness factor FKN                  10.000    
 The resulting initial contact stiffness      0.16235E+16
 Default penetration tolerance factor FTOLN   0.10000    
 The resulting penetration tolerance          0.32297E-03
 Default opening contact stiffness OPSF will be used.
 Default tangent stiffness factor FKT          1.0000    
 Default elastic slip factor SLTOL            0.50000E-02
 The resulting elastic slip                   0.13749E-04
 Update contact stiffness at each iteration
 Default Max. friction stress TAUMAX          0.10000E+21
 Average contact surface length               0.27498E-02
 Average contact pair depth                   0.32297E-02
 Default pinball region factor PINB           0.25000    
 The resulting pinball region                 0.80742E-03
 Initial penetration/gap is excluded.
 Bonded contact (always) is defined.

 *** NOTE ***                            CP =       3.401   TIME= 13:33:27
 Max.  Initial penetration 1.683570389E-11 was detected between contact  
 element 26061 and target element 26154.                                 
 ****************************************
  

 *** NOTE ***                            CP =       3.401   TIME= 13:33:27
 Symmetric Deformable- deformable contact pair identified by real        
 constant set 28 and contact element type 27 has been set up.  The       
 companion pair has real constant set ID 27.  Both pairs should have     
 the same behavior.                                                      
 ANSYS will keep the current pair and deactivate its companion pair,     
 resulting in asymmetric contact.                                        
 Contact algorithm: Augmented Lagrange method
 Contact detection at: Gauss integration point
 Contact stiffness factor FKN                  10.000    
 The resulting initial contact stiffness      0.16235E+16
 Default penetration tolerance factor FTOLN   0.10000    
 The resulting penetration tolerance          0.31788E-03
 Default opening contact stiffness OPSF will be used.
 Default tangent stiffness factor FKT          1.0000    
 Default elastic slip factor SLTOL            0.50000E-02
 The resulting elastic slip                   0.13792E-04
 Update contact stiffness at each iteration
 Default Max. friction stress TAUMAX          0.10000E+21
 Average contact surface length               0.27585E-02
 Average contact pair depth                   0.31788E-02
 Default pinball region factor PINB           0.25000    
 The resulting pinball region                 0.79469E-03
 Initial penetration/gap is excluded.
 Bonded contact (always) is defined.

 *** NOTE ***                            CP =       3.401   TIME= 13:33:27
 Max.  Initial penetration 1.621476506E-11 was detected between contact  
 element 26094 and target element 25994.                                 
 ****************************************
  

 *** NOTE ***                            CP =       3.401   TIME= 13:33:27
 Symmetric Deformable- deformable contact pair identified by real        
 constant set 29 and contact element type 29 has been set up.  The       
 companion pair has real constant set ID 30.  Both pairs should have     
 the same behavior.                                                      
 ANSYS will deactivate the current pair and keep its companion pair,     
 resulting in asymmetric contact.                                        
 Contact algorithm: Augmented Lagrange method
 Contact detection at: Gauss integration point
 Contact stiffness factor FKN                  10.000    
 The resulting initial contact stiffness      0.12060E+16
 Default penetration tolerance factor FTOLN   0.10000    
 The resulting penetration tolerance          0.19444E-03
 Default opening contact stiffness OPSF will be used.
 Default tangent stiffness factor FKT          1.0000    
 Default elastic slip factor SLTOL            0.50000E-02
 The resulting elastic slip                   0.17670E-04
 Update contact stiffness at each iteration
 Default Max. friction stress TAUMAX          0.10000E+21
 Average contact surface length               0.35340E-02
 Average contact pair depth                   0.19444E-02
 Default pinball region factor PINB           0.25000    
 The resulting pinball region                 0.48611E-03
 Initial penetration/gap is excluded.
 Bonded contact (always) is defined.

 *** NOTE ***                            CP =       3.401   TIME= 13:33:27
 Max.  Initial penetration 2.775557562E-17 was detected between contact  
 element 26190 and target element 26306.                                 
 ****************************************
  

 *** NOTE ***                            CP =       3.401   TIME= 13:33:27
 Symmetric Deformable- deformable contact pair identified by real        
 constant set 30 and contact element type 29 has been set up.  The       
 companion pair has real constant set ID 29.  Both pairs should have     
 the same behavior.                                                      
 ANSYS will keep the current pair and deactivate its companion pair,     
 resulting in asymmetric contact.                                        
 Contact algorithm: Augmented Lagrange method
 Contact detection at: Gauss integration point
 Contact stiffness factor FKN                  10.000    
 The resulting initial contact stiffness      0.12060E+16
 Default penetration tolerance factor FTOLN   0.10000    
 The resulting penetration tolerance          0.43478E-03
 Default opening contact stiffness OPSF will be used.
 Default tangent stiffness factor FKT          1.0000    
 Default elastic slip factor SLTOL            0.50000E-02
 The resulting elastic slip                   0.17838E-04
 Update contact stiffness at each iteration
 Default Max. friction stress TAUMAX          0.10000E+21
 Average contact surface length               0.35677E-02
 Average contact pair depth                   0.43478E-02
 Default pinball region factor PINB           0.25000    
 The resulting pinball region                 0.10870E-02
 Initial penetration/gap is excluded.
 Bonded contact (always) is defined.

 *** NOTE ***                            CP =       3.401   TIME= 13:33:27
 Max.  Initial penetration 1.110223025E-16 was detected between contact  
 element 26278 and target element 26178.                                 
 ****************************************
  
  
  

  
 *************************************************
  SUMMARY FOR CONTACT PAIR IDENTIFIED BY REAL CONSTANT SET          11

 *** NOTE ***                            CP =       9.157   TIME= 13:33:31
 Contact pair is inactive.                                               
  
 *************************************************
  SUMMARY FOR CONTACT PAIR IDENTIFIED BY REAL CONSTANT SET          12
 Max.  Penetration of 0 has been detected between contact element 24813  
 and target element 24787.                                               
  
 Max.  Geometrical gap of 2.775557562E-17 has been detected between      
 contact element 24814 and target element 24755.                         
  
 Max.  Geometrical penetration of -5.551115123E-17 has been detected     
 between contact element 24814 and target element 24755.                 
 For total 30 contact elements, there are 28 elements are in contact.    
 There are 28 elements are in sticking.                                  
 Contacting area 1.593642419E-04.                                        
 Max.  Pinball distance 1.086956525E-03.                                 
 One of the contact searching regions contains at least 6 target         
 elements.                                                               
 Max.  Pressure/force 3.680379225E-03.                                   
 Max.  Normal stiffness 1.205956938E+15.                                 
 Min.  Normal stiffness 1.205956938E+15.                                 
 Max.  Tangential stiffness 1.144470692E+15.                             
 Min.  Tangential stiffness 1.144470692E+15.                             
 *************************************************
  
 *************************************************
  SUMMARY FOR CONTACT PAIR IDENTIFIED BY REAL CONSTANT SET          13
 Max.  Penetration of -2.449991189E-16 has been detected between contact 
 element 24946 and target element 25040.                                 
  
 Max.  Geometrical gap of 2.787440646E-11 has been detected between      
 contact element 24922 and target element 25051.                         
  
 Max.  Geometrical penetration of -4.057540622E-11 has been detected     
 between contact element 24922 and target element 25051.                 
 For total 46 contact elements, there are 46 elements are in contact.    
 There are 46 elements are in sticking.                                  
 Contacting area 2.05460051E-04.                                         
 Max.  Pinball distance 7.771694479E-04.                                 
 One of the contact searching regions contains at least 8 target         
 elements.                                                               
 Max.  Pressure/force 0.412493356.                                       
 Max.  Normal stiffness 1.683652405E+15.                                 
 Min.  Normal stiffness 1.683652405E+15.                                 
 Max.  Tangential stiffness 1.41550199E+15.                              
 Min.  Tangential stiffness 1.41550199E+15.                              
 *************************************************
  
 *************************************************
  SUMMARY FOR CONTACT PAIR IDENTIFIED BY REAL CONSTANT SET          14

 *** NOTE ***                            CP =       9.157   TIME= 13:33:31
 Contact pair is inactive.                                               
  
 *************************************************
  SUMMARY FOR CONTACT PAIR IDENTIFIED BY REAL CONSTANT SET          15
 Max.  Penetration of 0 has been detected between contact element 25076  
 and target element 25246.                                               
  
 Max.  Geometrical gap of 5.551115123E-17 has been detected between      
 contact element 25076 and target element 25246.                         
  
 Max.  Geometrical penetration of -5.551115123E-17 has been detected     
 between contact element 25076 and target element 25246.                 
 For total 57 contact elements, there are 51 elements are in contact.    
 There are 51 elements are in sticking.                                  
 Contacting area 8.793103449E-04.                                        
 Max.  Pinball distance 4.90101187E-04.                                  
 One of the contact searching regions contains at least 12 target        
 elements.                                                               
 Max.  Pressure/force 5.457702864E-03.                                   
 Max.  Normal stiffness 1.309833492E+15.                                 
 Min.  Normal stiffness 1.309833492E+15.                                 
 Max.  Tangential stiffness 4.10515463E+14.                              
 Min.  Tangential stiffness 4.10515463E+14.                              
 *************************************************
  
 *************************************************
  SUMMARY FOR CONTACT PAIR IDENTIFIED BY REAL CONSTANT SET          16

 *** NOTE ***                            CP =       9.157   TIME= 13:33:31
 Contact pair is inactive.                                               
  
 *************************************************
  SUMMARY FOR CONTACT PAIR IDENTIFIED BY REAL CONSTANT SET          17
 Max.  Penetration of 0 has been detected between contact element 25276  
 and target element 25404.                                               
  
 Max.  Geometrical gap of 5.551115123E-17 has been detected between      
 contact element 25278 and target element 25404.                         
  
 Max.  Geometrical penetration of -2.775557562E-17 has been detected     
 between contact element 25278 and target element 25404.                 
 For total 54 contact elements, there are 48 elements are in contact.    
 There are 48 elements are in sticking.                                  
 Contacting area 7.758620702E-04.                                        
 Max.  Pinball distance 4.901011867E-04.                                 
 One of the contact searching regions contains at least 15 target        
 elements.                                                               
 Max.  Pressure/force 7.15699059E-03.                                    
 Max.  Normal stiffness 1.717657815E+15.                                 
 Min.  Normal stiffness 1.717657815E+15.                                 
 Max.  Tangential stiffness 5.383318543E+14.                             
 Min.  Tangential stiffness 5.383318543E+14.                             
 *************************************************
  
 *************************************************
  SUMMARY FOR CONTACT PAIR IDENTIFIED BY REAL CONSTANT SET          18

 *** NOTE ***                            CP =       9.157   TIME= 13:33:31
 Contact pair is inactive.                                               
  
 *************************************************
  SUMMARY FOR CONTACT PAIR IDENTIFIED BY REAL CONSTANT SET          19
 Max.  Penetration of 0 has been detected between contact element 25441  
 and target element 25558.                                               
  
 Max.  Geometrical gap of 2.775557562E-17 has been detected between      
 contact element 25443 and target element 25573.                         
  
 Max.  Geometrical penetration of -2.775557562E-17 has been detected     
 between contact element 25443 and target element 25573.                 
 For total 45 contact elements, there are 39 elements are in contact.    
 There are 39 elements are in sticking.                                  
 Contacting area 6.206896562E-04.                                        
 Max.  Pinball distance 4.901011868E-04.                                 
 One of the contact searching regions contains at least 12 target        
 elements.                                                               
 Max.  Pressure/force 6.384285081E-03.                                   
 Max.  Normal stiffness 1.532210644E+15.                                 
 Min.  Normal stiffness 1.532210644E+15.                                 
 Max.  Tangential stiffness 4.80210779E+14.                              
 Min.  Tangential stiffness 4.80210779E+14.                              
 *************************************************
  
 *************************************************
  SUMMARY FOR CONTACT PAIR IDENTIFIED BY REAL CONSTANT SET          20

 *** NOTE ***                            CP =       9.157   TIME= 13:33:31
 Contact pair is inactive.                                               
  
 *************************************************
  SUMMARY FOR CONTACT PAIR IDENTIFIED BY REAL CONSTANT SET          21

 *** NOTE ***                            CP =       9.157   TIME= 13:33:31
 Contact pair is inactive.                                               
  
 *************************************************
  SUMMARY FOR CONTACT PAIR IDENTIFIED BY REAL CONSTANT SET          22
 Max.  Penetration of 0 has been detected between contact element 25659  
 and target element 25590.                                               
  
 Max.  Geometrical gap of 2.775557562E-17 has been detected between      
 contact element 25660 and target element 25632.                         
  
 Max.  Geometrical penetration of -5.551115123E-17 has been detected     
 between contact element 25660 and target element 25632.                 
 For total 30 contact elements, there are 27 elements are in contact.    
 There are 27 elements are in sticking.                                  
 Contacting area 1.603337042E-04.                                        
 Max.  Pinball distance 1.086956525E-03.                                 
 One of the contact searching regions contains at least 8 target         
 elements.                                                               
 Max.  Pressure/force 3.69668598E-03.                                    
 Max.  Normal stiffness 1.205956938E+15.                                 
 Min.  Normal stiffness 1.205956938E+15.                                 
 Max.  Tangential stiffness 1.139422223E+15.                             
 Min.  Tangential stiffness 1.139422223E+15.                             
 *************************************************
  
 *************************************************
  SUMMARY FOR CONTACT PAIR IDENTIFIED BY REAL CONSTANT SET          23

 *** NOTE ***                            CP =       9.157   TIME= 13:33:31
 Contact pair is inactive.                                               
  
 *************************************************
  SUMMARY FOR CONTACT PAIR IDENTIFIED BY REAL CONSTANT SET          24
 Max.  Penetration of 0 has been detected between contact element 25799  
 and target element 25766.                                               
  
 Max.  Geometrical gap of 5.551115123E-17 has been detected between      
 contact element 25799 and target element 25766.                         
  
 Max.  Geometrical penetration of -8.326672685E-17 has been detected     
 between contact element 25799 and target element 25766.                 
 For total 32 contact elements, there are 29 elements are in contact.    
 There are 29 elements are in sticking.                                  
 Contacting area 1.599495011E-04.                                        
 Max.  Pinball distance 1.086956525E-03.                                 
 One of the contact searching regions contains at least 8 target         
 elements.                                                               
 Max.  Pressure/force 3.850191644E-03.                                   
 Max.  Normal stiffness 1.205956938E+15.                                 
 Min.  Normal stiffness 1.205956938E+15.                                 
 Max.  Tangential stiffness 1.093993896E+15.                             
 Min.  Tangential stiffness 1.093993896E+15.                             
 *************************************************
  
 *************************************************
  SUMMARY FOR CONTACT PAIR IDENTIFIED BY REAL CONSTANT SET          25
 Max.  Penetration of 0 has been detected between contact element 25876  
 and target element 25970.                                               
  
 Max.  Geometrical gap of 5.551115123E-17 has been detected between      
 contact element 25876 and target element 25947.                         
  
 Max.  Geometrical penetration of -2.775557562E-17 has been detected     
 between contact element 25876 and target element 25947.                 
 For total 22 contact elements, there are 18 elements are in contact.    
 There are 18 elements are in sticking.                                  
 Contacting area 5.86956522E-04.                                         
 Max.  Pinball distance 3.98561291E-04.                                  
 One of the contact searching regions contains at least 17 target        
 elements.                                                               
 Max.  Pressure/force 6.223970477E-03.                                   
 Max.  Normal stiffness 1.318661938E+15.                                 
 Min.  Normal stiffness 1.318661938E+15.                                 
 Max.  Tangential stiffness 2.966989479E+14.                             
 Min.  Tangential stiffness 2.966989479E+14.                             
 *************************************************
  
 *************************************************
  SUMMARY FOR CONTACT PAIR IDENTIFIED BY REAL CONSTANT SET          26

 *** NOTE ***                            CP =       9.157   TIME= 13:33:31
 Contact pair is inactive.                                               
  
 *************************************************
  SUMMARY FOR CONTACT PAIR IDENTIFIED BY REAL CONSTANT SET          27

 *** NOTE ***                            CP =       9.157   TIME= 13:33:31
 Contact pair is inactive.                                               
  
 *************************************************
  SUMMARY FOR CONTACT PAIR IDENTIFIED BY REAL CONSTANT SET          28
 Max.  Penetration of -1.329158993E-16 has been detected between contact 
 element 26084 and target element 25999.                                 
  
 Max.  Geometrical gap of 1.18769955E-11 has been detected between       
 contact element 26094 and target element 25994.                         
  
 Max.  Geometrical penetration of -1.621472076E-11 has been detected     
 between contact element 26094 and target element 25994.                 
 For total 45 contact elements, there are 45 elements are in contact.    
 There are 45 elements are in sticking.                                  
 Contacting area 1.981605582E-04.                                        
 Max.  Pinball distance 7.946881071E-04.                                 
 One of the contact searching regions contains at least 8 target         
 elements.                                                               
 Max.  Pressure/force 0.21578623.                                        
 Max.  Normal stiffness 1.62347944E+15.                                  
 Min.  Normal stiffness 1.62347944E+15.                                  
 Max.  Tangential stiffness 1.403135531E+15.                             
 Min.  Tangential stiffness 1.403135531E+15.                             
 *************************************************
  
 *************************************************
  SUMMARY FOR CONTACT PAIR IDENTIFIED BY REAL CONSTANT SET          29

 *** NOTE ***                            CP =       9.157   TIME= 13:33:31
 Contact pair is inactive.                                               
  
 *************************************************
  SUMMARY FOR CONTACT PAIR IDENTIFIED BY REAL CONSTANT SET          30
 Max.  Penetration of 0 has been detected between contact element 26265  
 and target element 26163.                                               
  
 Max.  Geometrical gap of 5.551115123E-17 has been detected between      
 contact element 26278 and target element 26178.                         
  
 Max.  Geometrical penetration of -1.110223025E-16 has been detected     
 between contact element 26278 and target element 26178.                 
 For total 30 contact elements, there are 27 elements are in contact.    
 There are 27 elements are in sticking.                                  
 Contacting area 1.60075356E-04.                                         
 Max.  Pinball distance 1.086956525E-03.                                 
 One of the contact searching regions contains at least 10 target        
 elements.                                                               
 Max.  Pressure/force 3.821349961E-03.                                   
 Max.  Normal stiffness 1.205956938E+15.                                 
 Min.  Normal stiffness 1.205956938E+15.                                 
 Max.  Tangential stiffness 1.102250827E+15.                             
 Min.  Tangential stiffness 1.102250827E+15.                             
 *************************************************

 Range of element maximum matrix coefficients in global coordinates
 Maximum = 1.955976032E+10 at element 25882.                             
 Minimum = 84795380.3 at element 18933.                                  

   *** ELEMENT MATRIX FORMULATION TIMES
  TYPE    NUMBER   ENAME      TOTAL CP  AVE CP

     1     12006  SOLID186      5.288   0.000440
     2      1380  SOLID186      0.468   0.000339
     3      1935  SOLID186      0.811   0.000419
     4      2565  SOLID186      0.936   0.000365
     5       299  SOLID187      0.031   0.000104
     6       412  SOLID187      0.062   0.000151
     7       447  SOLID187      0.062   0.000140
     8      1380  SOLID186      0.905   0.000656
     9      1380  SOLID186      0.499   0.000362
    10      2944  SOLID186      0.967   0.000329
    11        62  CONTA174      0.000   0.000000
    12        62  TARGE170      0.000   0.000000
    13        91  CONTA174      0.000   0.000000
    14        91  TARGE170      0.000   0.000000
    15       101  CONTA174      0.000   0.000000
    16       101  TARGE170      0.000   0.000000
    17        84  CONTA174      0.000   0.000000
    18        84  TARGE170      0.000   0.000000
    19        75  CONTA174      0.000   0.000000
    20        75  TARGE170      0.031   0.000416
    21        72  CONTA174      0.016   0.000217
    22        72  TARGE170      0.000   0.000000
    23        72  CONTA174      0.031   0.000433
    24        72  TARGE170      0.031   0.000433
    25        56  CONTA174      0.000   0.000000
    26        56  TARGE170      0.000   0.000000
    27        90  CONTA174      0.031   0.000347
    28        90  TARGE170      0.000   0.000000
    29        85  CONTA174      0.000   0.000000
    30        85  TARGE170      0.000   0.000000
    31        76  SURF154       0.000   0.000000
    32        44  SURF154       0.000   0.000000
 Time at end of element matrix formulation CP = 9.51606083.              
     FORCE CONVERGENCE VALUE  =  144.5      CRITERION= 0.7373    

 *** NOTE ***                            CP =       9.610   TIME= 13:33:32
 The initial memory allocation (-m) has been exceeded.                   
  Supplemental memory allocations are being used.                        

 SPARSE MATRIX DIRECT SOLVER.
  Number of equations =      415620,    Maximum wavefront =    342
  Memory allocated for solver =                813.189 MB
  Memory required for in-core =               1766.343 MB
  Optimal memory required for out-of-core =     92.476 MB
  Minimum memory required for out-of-core =     74.421 MB

 *** NOTE ***                            CP =      15.678   TIME= 13:34:16
 The Sparse Matrix solver is currently running in the optimal            
 out-of-core memory mode.  This memory mode achieves a good balance of   
 memory usage and hard drive usage in order to obtain an efficient       
 solution time.                                                          
 curEqn=     67  totEqn= 415620 Job CP sec=     20.982
      Factor Done=   0% Factor Wall sec=     30.805 rate=       0.0 Mflops
 curEqn=  73345  totEqn= 415620 Job CP sec=     37.674
      Factor Done=  14% Factor Wall sec=     60.891 rate=     294.9 Mflops
 curEqn= 207283  totEqn= 415620 Job CP sec=     56.582
      Factor Done=  50% Factor Wall sec=     78.088 rate=     815.9 Mflops
 curEqn= 307012  totEqn= 415620 Job CP sec=     78.593
      Factor Done=  70% Factor Wall sec=    108.871 rate=     816.7 Mflops
 curEqn= 415621  totEqn= 415620 Job CP sec=     92.103
      Factor Done= 100% Factor Wall sec=    122.582 rate=    1036.6 Mflops
 Sparse solver maximum pivot= 2.206774637E+10 at node 104542 UZ.         
 Sparse solver minimum pivot= 421721.51 at node 96596 UY.                
 Sparse solver minimum pivot in absolute value= 421721.51 at node 96596  
 UY.                                                                     

   *** ELEMENT RESULT CALCULATION TIMES
  TYPE    NUMBER   ENAME      TOTAL CP  AVE CP

     1     12006  SOLID186      7.925   0.000660
     2      1380  SOLID186      3.494   0.002532
     3      1935  SOLID186      0.858   0.000443
     4      2565  SOLID186      0.733   0.000286
     5       299  SOLID187      0.156   0.000522
     6       412  SOLID187      0.078   0.000189
     7       447  SOLID187      0.203   0.000454
     8      1380  SOLID186      0.468   0.000339
     9      1380  SOLID186      1.232   0.000893
    10      2944  SOLID186      3.058   0.001039
    11        62  CONTA174      0.062   0.001007
    12        62  TARGE170      0.000   0.000000
    13        91  CONTA174      0.031   0.000343
    14        91  TARGE170      0.000   0.000000
    15       101  CONTA174      0.156   0.001544
    16       101  TARGE170      0.000   0.000000
    17        84  CONTA174      0.109   0.001300
    18        84  TARGE170      0.031   0.000371
    19        75  CONTA174      0.016   0.000208
    20        75  TARGE170      0.000   0.000000
    21        72  CONTA174      0.000   0.000000
    22        72  TARGE170      0.031   0.000433
    23        72  CONTA174      0.000   0.000000
    24        72  TARGE170      0.000   0.000000
    25        56  CONTA174      0.000   0.000000
    26        56  TARGE170      0.000   0.000000
    27        90  CONTA174      0.062   0.000693
    28        90  TARGE170      0.000   0.000000
    29        85  CONTA174      0.031   0.000367
    30        85  TARGE170      0.016   0.000184
    31        76  SURF154       0.000   0.000000
    32        44  SURF154       0.000   0.000000

   *** NODAL LOAD CALCULATION TIMES
  TYPE    NUMBER   ENAME      TOTAL CP  AVE CP

     1     12006  SOLID186      0.047   0.000004
     2      1380  SOLID186      0.000   0.000000
     3      1935  SOLID186      0.000   0.000000
     4      2565  SOLID186      0.094   0.000036
     5       299  SOLID187      0.000   0.000000
     6       412  SOLID187      0.000   0.000000
     7       447  SOLID187      0.000   0.000000
     8      1380  SOLID186      0.000   0.000000
     9      1380  SOLID186      0.000   0.000000
    10      2944  SOLID186      0.016   0.000005
    11        62  CONTA174      0.000   0.000000
    12        62  TARGE170      0.000   0.000000
    13        91  CONTA174      0.000   0.000000
    14        91  TARGE170      0.000   0.000000
    15       101  CONTA174      0.000   0.000000
    16       101  TARGE170      0.000   0.000000
    17        84  CONTA174      0.000   0.000000
    18        84  TARGE170      0.000   0.000000
    19        75  CONTA174      0.000   0.000000
    20        75  TARGE170      0.000   0.000000
    21        72  CONTA174      0.000   0.000000
    22        72  TARGE170      0.000   0.000000
    23        72  CONTA174      0.000   0.000000
    24        72  TARGE170      0.000   0.000000
    25        56  CONTA174      0.000   0.000000
    26        56  TARGE170      0.000   0.000000
    27        90  CONTA174      0.000   0.000000
    28        90  TARGE170      0.000   0.000000
    29        85  CONTA174      0.000   0.000000
    30        85  TARGE170      0.000   0.000000
    31        76  SURF154       0.000   0.000000
    32        44  SURF154       0.000   0.000000
 *** LOAD STEP     1   SUBSTEP     1  COMPLETED.    CUM ITER =      1
 *** TIME =   1.00000         TIME INC =   1.00000      NEW TRIANG MATRIX


 *** ANSYS BINARY FILE STATISTICS
  BUFFER SIZE USED= 16384
      158.562 MB WRITTEN ON ELEMENT SAVED DATA FILE: file.esav
      307.625 MB WRITTEN ON ASSEMBLED MATRIX FILE: file.full
       38.500 MB WRITTEN ON RESULTS FILE: file.rst
 *************** Write FE CONNECTORS *********

 WRITE OUT CONSTRAINT EQUATIONS TO FILE= file.ce                                                                                                                                                                                                                                                             
 ****************************************************
 *************** FINISHED SOLVE FOR LS 1 *************

 PARAMETER _DS_PROGRESS  DELETED.

 *GET  _WALLASOL  FROM  ACTI  ITEM=TIME WALL  VALUE=  13.6600000    

 FINISH SOLUTION PROCESSING


 ***** ROUTINE COMPLETED *****  CP =       108.312


1

 ***** ANSYS - ENGINEERING ANALYSIS SYSTEM  RELEASE 15.0.7   Maintenance Release *****
 ANSYS Academic Teaching Advanced                  
 00313154          VERSION=WINDOWS x64   13:39:37  FEB 23, 2015 CP=    108.327

 Models--Static Structural (D5)                                                


          ***** ANSYS RESULTS INTERPRETATION (POST1) *****

 *** NOTE ***                            CP =     108.327   TIME= 13:39:37
 Reading results into the database (SET command) will update the current 
 displacement and force boundary conditions in the database with the     
 values from the results file for that load set.  Note that any          
 subsequent solutions will use these values unless action is taken to    
 either SAVE the current values or not overwrite them (/EXIT,NOSAVE).    

 Set Encoding of XML File to:ISO-8859-1

 Set Output of XML File to:
     PARM,     ,     ,     ,     ,     ,     ,     ,     ,     ,     ,     ,
         ,     ,     ,     ,     ,     ,     ,

 DATABASE WRITTEN ON FILE  parm.xml                                                                                                                                                                                                                                                            

 EXIT THE ANSYS POST1 DATABASE PROCESSOR


 ***** ROUTINE COMPLETED *****  CP =       108.327



 PRINTOUT RESUMED BY /GOP

 *GET  _WALLDONE  FROM  ACTI  ITEM=TIME WALL  VALUE=  13.6602778    

 PARAMETER _PREPTIME =     0.000000000    

 PARAMETER _SOLVTIME =     370.0000000    

 PARAMETER _POSTTIME =     1.000000000    

 PARAMETER _TOTALTIM =     371.0000000    

 EXIT ANSYS WITHOUT SAVING DATABASE


 NUMBER OF WARNING MESSAGES ENCOUNTERED=          4
 NUMBER OF ERROR   MESSAGES ENCOUNTERED=          0

 *** WARNING ***                         CP =     108.343   TIME= 13:39:39
 During this session the elapsed time exceeds the CPU time by 1040%.     
 Often this indicates either a lack of physical memory (RAM) required    
 to efficiently handle this simulation or it indicates a particularly    
 slow hard drive configuration.  This simulation can be expected to run  
 faster on identical hardware if additional RAM or a faster hard drive   
 configuration is made available.  For more details, please see the      
 ANSYS Performance Guide which is part of the ANSYS Help system.         

+--------------------- A N S Y S   S T A T I S T I C S ------------------------+

Release: 15.0.7     Build: UP20140420   Platform: WINDOWS x64 
Date Run: 02/23/2015   Time: 13:39
Windows Process ID:         9692

Processor Model:        Intel(R) Core(TM) i5-3320M CPU @ 2.60GHz

Compiler: Intel(R) FORTRAN Compiler Version 12.1.0  (Build: 20120928)
          Microsoft(R) Visual C/C++ Compiler Version 16.0  (Build: 40219)
          Intel(R) Math Kernel Library Version 11.0.5 Product Build 20130612

Total number of cores available    :    4
Number of physical cores available :    2
Number of cores requested          :    2 (Shared Memory Parallel)

GPU Acceleration: Not Requested

Job Name: file
Working Directory: D:\MyDocs\Documents\Senior\Fall\Senior Design 1\AgileRoboticControls\SolidWorks Models\ANSYS\_ProjectScratch\Scr415B

Total CPU time for main thread                    :       33.3 seconds
Total CPU time summed for all threads             :      108.3 seconds

Elapsed time spent pre-processing model (/PREP7)  :        0.6 seconds
Elapsed time spent solution - preprocessing       :        5.2 seconds
Elapsed time spent computing solution             :      363.1 seconds
Elapsed time spent solution - postprocessing      :        0.0 seconds
Elapsed time spent post-processing model (/POST1) :        0.6 seconds

Equation solver computational rate                :     1005.2 Mflops
Equation solver effective I/O rate                :       87.0 MB/sec

Maximum total memory used                         :     1035.0 MB
Maximum total memory allocated                    :     1901.0 MB
Maximum total memory available                    :          4 GB

+------------------ E N D   A N S Y S   S T A T I S T I C S -------------------+


 *---------------------------------------------------------------------------*
 |                                                                           |
 |                            ANSYS RUN COMPLETED                            |
 |                                                                           |
 |---------------------------------------------------------------------------|
 |                                                                           |
 |            Release 15.0.7         UP20140420         WINDOWS x64          |
 |                                                                           |
 |---------------------------------------------------------------------------|
 |                                                                           |
 | Database Requested(-db)   512 MB    Scratch Memory Requested       512 MB |
 | Maximum Database Used     106 MB    Maximum Scratch Memory Used    929 MB |
 |                                                                           |
 |---------------------------------------------------------------------------|
 |                                                                           |
 |        CP Time      (sec) =        108.327       Time  =  13:39:39        |
 |        Elapsed Time (sec) =        380.000       Date  =  02/23/2015      |
 |                                                                           |
 *---------------------------------------------------------------------------*
