/batch
*get,_wallstrt,active,,time,wall
! ANSYS input file written by Workbench version 15.0.7  Release
! File used for geometry attach: D:\MyDocs\Documents\Senior\Fall\Senior Design 1\AgileRoboticControls\SolidWorks Models\ANSYS\Models_files\dp0\SYS\DM\SYS.agdb
/title,Models--Static Structural (A5)
*DIM,_wb_ProjectScratch_dir,string,248
_wb_ProjectScratch_dir(1) = 'D:\MyDocs\Documents\Senior\Fall\Senior Design 1\AgileRoboticControls\SolidWorks Models\ANSYS\_ProjectScratch\ScrB15D\'
*DIM,_wb_SolverFiles_dir,string,248
_wb_SolverFiles_dir(1) = 'D:\MyDocs\Documents\Senior\Fall\Senior Design 1\AgileRoboticControls\SolidWorks Models\ANSYS\Models_files\dp0\SYS\MECH\'
*DIM,_wb_userfiles_dir,string,248
_wb_userfiles_dir(1) = 'D:\MyDocs\Documents\Senior\Fall\Senior Design 1\AgileRoboticControls\SolidWorks Models\ANSYS\Models_files\user_files\'
/com,--- Data in consistent MKS units.
/units,MKS
/nopr
/wb,file,start              !  signify a WB generated input file
/prep7
! Turn off shape checking because checks already performed inside WB mesher.
! See help system for more information.
SHPP,OFF,,NOWARN
/nolist
etcon,set             ! allow ANSYS to choose best KEYOP's for 180x elements
/com,*********** Nodes for the whole assembly ***********
nblock,3
(1i9,3e20.9e3)
        1    5.000000000E-003    6.123233996E-019   -1.000000000E-002
        2    3.535533906E-003    3.535533906E-003   -1.000000000E-002
        3   -3.061616998E-019    5.000000000E-003   -1.000000000E-002
        4   -3.535533906E-003    3.535533906E-003   -1.000000000E-002
        5   -5.000000000E-003    0.000000000E+000   -1.000000000E-002
        6   -3.535533906E-003   -3.535533906E-003   -1.000000000E-002
        7   -3.061616998E-019   -5.000000000E-003   -1.000000000E-002
        8    3.535533906E-003   -3.535533906E-003   -1.000000000E-002
        9    5.000000000E-003    6.123233996E-019   -5.000000000E-003
       10    3.535533906E-003    3.535533906E-003   -5.000000000E-003
       11   -3.061616998E-019    5.000000000E-003   -5.000000000E-003
       12   -3.535533906E-003    3.535533906E-003   -5.000000000E-003
       13   -5.000000000E-003    0.000000000E+000   -5.000000000E-003
       14   -3.535533906E-003   -3.535533906E-003   -5.000000000E-003
       15   -3.061616998E-019   -5.000000000E-003   -5.000000000E-003
       16    3.535533906E-003   -3.535533906E-003   -5.000000000E-003
       17   -1.000000000E-002   -2.150000000E-001    1.500000000E-002
       18   -2.000000000E-002   -2.150000000E-001    5.000000000E-003
       19   -1.382683432E-002   -2.150000000E-001    1.423879533E-002
       20   -1.707106781E-002   -2.150000000E-001    1.207106781E-002
! ... 12930 like lines cut
/wb,elem,start            !  set before creation of elements
/com,*********** Elements for Body 1 "Solid" ***********
et,1,187
eblock,19,solid,,7091
(19i9)
        1        1        1        1        0        0        0        0       10        0        1      380     1550      381     1628     4516     4523     4513     4518
    10541     4524
        1        1        1        1        0        0        0        0       10        0        2     1394     1485     1503     1836     9824    10299     9825     9827
    10301    10358
        1        1        1        1        0        0        0        0       10        0        3     1239     1275     1326     1824     9008     9204     9010     9014
     9208     9487
        1        1        1        1        0        0        0        0       10        0        4     1218     1635     1297     1298     8874     9323     8872     8873
     9328     9320
        1        1        1        1        0        0        0        0       10        0        5     1718     1848     2034     1849    11580    12376    11584    11581
    12371    12382
        1        1        1        1        0        0        0        0       10        0        6      547      876     1637      548     5545     7375     5548     5544
     5551     5555
        1        1        1        1        0        0        0        0       10        0        7      597     1641     1220     1259     5886     8889     5884     5885
     9125     8884
        1        1        1        1        0        0        0        0       10        0        8      640      641      853     1643     6170     6177     6171     6174
     6181     7302
        1        1        1        1        0        0        0        0       10        0        9     1303     1345     1304     1814     9358     9364     9356     9360
     9554     9365
        1        1        1        1        0        0        0        0       10        0       10      256     1126     1131     2038     3695     8504     3696     3697
     8509     8533
! ... 14163 like lines cut
!Material Id = {253CBE0B-7FF8-4D74-AB22-C994DD91DBF5}
/wb,elem,end               !  done creating elements
/com,*********** Send User Defined Coordinate System(s) ***********
csys,0
toffst,273.15,  ! Temperature offset from absolute zero
/com,*********** Set Reference Temperature ***********
tref,22.
/wb,mat,start              !  starting to send materials
/com,*********** Send Materials ***********
MP,DENS,1,2770,	! kg m^-3
MP,ALPX,1,2.3e-05,	! C^-1
MP,C,1,875,	! J kg^-1 C^-1
MPTEMP,,,,,,,,
MPTEMP,1,-100
MPTEMP,2,0
MPTEMP,3,100
MPTEMP,4,200
MPDATA,KXX,1, ,114,144,165,175,	! W m^-1 C^-1
MPTEMP,,,,,,,,
MPTEMP,,,,,,,,
MPTEMP,1,0
MPTEMP,2,20
MPTEMP,3,100
MPDATA,RSVX,1, ,2.43e-08,2.67e-08,3.63e-08,	! kg m^3 A^-2 s^-3
MPTEMP,,,,,,,,
MP,EX,1,71000000000,	! Pa
MP,NUXY,1,0.33,
MP,MURX,1,1,

/wb,mat,end                !  done sending materials
!************************* Model Summary ********************
!Solid,	Aluminum Alloy,	matid,	1
!************************* End Model Summary ********************
! get the diagonal of the bounding box. Needed later for other things
*get,_xmin,node,,mnloc,x
*get,_ymin,node,,mnloc,y
*get,_zmin,node,,mnloc,z
*get,_xmax,node,,mxloc,x
*get,_ymax,node,,mxloc,y
*get,_zmax,node,,mxloc,z
_ASMDIAG=(_xmax-_xmin)*(_xmax-_xmin)+(_ymax-_ymin)*(_ymax-_ymin)+(_zmax-_zmin)*(_zmax-_zmin)
_ASMDIAG=SQRT(_ASMDIAG)
/wb,contact,start          !  starting to send contact
/wb,contact,end            !  done creating contacts
/golist
/wb,load,start             !  starting to send loads
/com,******* Constant Zero Displacement X *******
CMBLOCK,_DISPZEROUX,NODE,      224
(8i10)
         1         2         3         4         5         6         7         8
         9        10        11        12        13        14        15        16
       239       240       241       242       243       244       245       246
       247       248       249       250       251       252       253       254
       461       462       463       464       465       466       467       468
       469       470       471       472       473       474       475       476
       683       684       685       686       687       688       689       690
       691       692       693       694       695       696       697       698
       903       904       905       906       907       908       909       910
      2113      2114      2115      2120      2121      2122      2129      2130
      2131      2137      2138      2139      2145      2146      2147      2154
      2155      2156      2161      2162      2163      2168      2169      2170
      2177      2178      2183      2186      2190      2196      2199      2202
      3586      3587      3588      3589      3593      3594      3598      3599
      3600      3601      3606      3607      3608      3613      3614      3615
      3620      3621      3624      3625      3626      3627      3633      3634
      3640      3641      3642      3646      3647      3648      3652      3653
      3658      3659      3660      3664      3665      3668      3669      3670
      3675      3676      3681      3682      4980      4981      4982      4987
      4988      4989      4994      4995      4996      5000      5001      5002
! ... 8 like lines cut

cmsel,s,_DISPZEROUX
d,all,ux,0
nsel,all
/com,******* Constant Zero Displacement Y *******
CMBLOCK,_DISPZEROUY,NODE,      224
(8i10)
         1         2         3         4         5         6         7         8
         9        10        11        12        13        14        15        16
       239       240       241       242       243       244       245       246
       247       248       249       250       251       252       253       254
       461       462       463       464       465       466       467       468
       469       470       471       472       473       474       475       476
       683       684       685       686       687       688       689       690
       691       692       693       694       695       696       697       698
       903       904       905       906       907       908       909       910
      2113      2114      2115      2120      2121      2122      2129      2130
      2131      2137      2138      2139      2145      2146      2147      2154
      2155      2156      2161      2162      2163      2168      2169      2170
      2177      2178      2183      2186      2190      2196      2199      2202
      3586      3587      3588      3589      3593      3594      3598      3599
      3600      3601      3606      3607      3608      3613      3614      3615
      3620      3621      3624      3625      3626      3627      3633      3634
      3640      3641      3642      3646      3647      3648      3652      3653
      3658      3659      3660      3664      3665      3668      3669      3670
      3675      3676      3681      3682      4980      4981      4982      4987
      4988      4989      4994      4995      4996      5000      5001      5002
! ... 8 like lines cut

cmsel,s,_DISPZEROUY
d,all,uy,0
nsel,all
/com,******* Constant Zero Displacement Z *******
CMBLOCK,_DISPZEROUZ,NODE,      224
(8i10)
         1         2         3         4         5         6         7         8
         9        10        11        12        13        14        15        16
       239       240       241       242       243       244       245       246
       247       248       249       250       251       252       253       254
       461       462       463       464       465       466       467       468
       469       470       471       472       473       474       475       476
       683       684       685       686       687       688       689       690
       691       692       693       694       695       696       697       698
       903       904       905       906       907       908       909       910
      2113      2114      2115      2120      2121      2122      2129      2130
      2131      2137      2138      2139      2145      2146      2147      2154
      2155      2156      2161      2162      2163      2168      2169      2170
      2177      2178      2183      2186      2190      2196      2199      2202
      3586      3587      3588      3589      3593      3594      3598      3599
      3600      3601      3606      3607      3608      3613      3614      3615
      3620      3621      3624      3625      3626      3627      3633      3634
      3640      3641      3642      3646      3647      3648      3652      3653
      3658      3659      3660      3664      3665      3668      3669      3670
      3675      3676      3681      3682      4980      4981      4982      4987
      4988      4989      4994      4995      4996      5000      5001      5002
! ... 8 like lines cut

cmsel,s,_DISPZEROUZ
d,all,uz,0
nsel,all
nsel,all
/com,*********** Define Force Using Surface Effect Elements ***********
local,12,0,0.,0.,0.,-0.,0.,0.
csys,0
et,2,154
eblock,10,,,52
(15i9)
     7094        2        2        2       12     1130      257     1135     1135     3701     3702     1135     8522
     7095        2        2        2       12     1129      307     1132     1132     4031     4032     1132     8517
     7096        2        2        2       12      192      194     1127     1127     3320     3331     1127     3323
     7097        2        2        2       12     1132      309     1137     1137     4040     4042     1137     8534
     7098        2        2        2       12      193      180     1126     1126     3240     3242     1126     3326
     7099        2        2        2       12      445     1129     1134     1134     4899     8518     1134     4900
     7100        2        2        2       12      257     1128     1135     1135     3700     8514     1135     3702
     7101        2        2        2       12      260      259     1131     1131     3709     3711     1131     3715
     7102        2        2        2       12      307      308     1132     1132     4028     4036     1132     4032
     7103        2        2        2       12      445     1134      444      444     4900     4896      444     4893
     7104        2        2        2       12      443      444     1128     1128     4889     4895     1128     4892
     7105        2        2        2       12     1127      194     1138     1138     3331     3332     1138     8510
     7106        2        2        2       12      194     1126     1138     1138     3330     8505     1138     3332
     7107        2        2        2       12      256     1131     1126     1126     3696     8504     1126     3695
     7108        2        2        2       12      311      295     1127     1127     3955     3957     1127     4052
     7109        2        2        2       12      310      311     1133     1133     4047     4053     1133     4048
     7110        2        2        2       12      309      310     1133     1133     4039     4048     1133     4041
     7111        2        2        2       12      308      309     1132     1132     4034     4040     1132     4036
     7112        2        2        2       12      256      260     1131     1131     3692     3715     1131     3696
     7113        2        2        2       12      259      258     1130     1130     3705     3706     1130     3710
! ... 33 like lines cut
esel,s,type,,2
keyop,2,2,1                ! Apply load in local coordinate system
keyop,2,7,1                ! Use original area so load is constant in large deformation
keyop,2,11,2               ! Use real and not project area
esel,all

*DIM,_loadvari33x,TABLE,2,1,1,TIME,
! Time values
_loadvari33x(1,0,1) = 0.
_loadvari33x(2,0,1) = 1.
! Load values
_loadvari33x(1,1,1) = 0.
_loadvari33x(2,1,1) = -4874.85546549216


*DIM,_loadvari33y,TABLE,2,1,1,TIME,
! Time values
_loadvari33y(1,0,1) = 0.
_loadvari33y(2,0,1) = 1.
! Load values
_loadvari33y(1,1,1) = 0.
_loadvari33y(2,1,1) = 63405.9658222649


*DIM,_loadvari33z,TABLE,2,1,1,TIME,
! Time values
_loadvari33z(1,0,1) = 0.
_loadvari33z(2,0,1) = 1.
! Load values
_loadvari33z(1,1,1) = 0.
_loadvari33z(2,1,1) = 0.

/com,*********** Create Remote Point "Internal Remote Point" ***********
! -------- Remote Point Used by "Remote Force" --------
*set,tid,4
*set,cid,3
et,cid,174
et,tid,170
keyo,tid,2,1               ! Don't fix the pilot node
keyo,tid,4,111111
keyo,cid,12,5              ! Bonded Contact 
keyo,cid,4,1               ! Deformable RBE3 style load
keyo,cid,2,2               ! MPC style contact
eblock,10,,,24
(15i9)
     7146        3        3        3        0      686      905      694      694     6450     6504      694     6449
     7147        3        3        3        0      690      698      683      683     6477     6429      683     6428
     7148        3        3        3        0      686      694      687      687     6449     6456      687     6448
     7149        3        3        3        0      697      698      906      906     6521     6528      906     6522
     7150        3        3        3        0      693      694      905      905     6497     6504      905     6498
     7151        3        3        3        0      690      689      906      906     6468     6471      906     6478
     7152        3        3        3        0      686      685      905      905     6441     6444      905     6450
     7153        3        3        3        0      698      691      904      904     6485     6486      904     6527
     7154        3        3        3        0      683      698      904      904     6429     6527      904     6430
     7155        3        3        3        0      694      695      903      903     6502     6509      903     6503
     7156        3        3        3        0      695      696      903      903     6508     6515      903     6509
     7157        3        3        3        0      688      687      903      903     6455     6457      903     6463
     7158        3        3        3        0      687      694      903      903     6456     6503      903     6457
     7159        3        3        3        0      684      683      904      904     6427     6430      904     6436
     7160        3        3        3        0      691      692      904      904     6484     6492      904     6486
     7161        3        3        3        0      685      684      904      904     6435     6436      904     6443
     7162        3        3        3        0      689      688      903      903     6462     6463      903     6470
     7163        3        3        3        0      692      693      905      905     6491     6498      905     6493
     7164        3        3        3        0      696      697      906      906     6514     6522      906     6516
     7165        3        3        3        0      903      696      689      689     6515     6469      689     6470
! ... 5 like lines cut
eblock,10,,,24
(15i9)
     7170        3        3        3        0      251      252      907      907     3664     3669      907     3665
     7171        3        3        3        0      244      243      907      907     3613     3615      907     3621
     7172        3        3        3        0      243      250      907      907     3614     3659      907     3615
     7173        3        3        3        0      250      251      907      907     3658     3665      907     3659
     7174        3        3        3        0      240      239      908      908     3586     3589      908     3594
     7175        3        3        3        0      239      254      908      908     3588     3681      908     3589
     7176        3        3        3        0      247      248      908      908     3640     3647      908     3642
     7177        3        3        3        0      254      247      908      908     3641     3642      908     3681
     7178        3        3        3        0      241      240      908      908     3593     3594      908     3600
     7179        3        3        3        0      242      241      909      909     3598     3601      909     3608
     7180        3        3        3        0      245      244      907      907     3620     3621      907     3626
     7181        3        3        3        0      246      245      910      910     3624     3627      910     3634
     7182        3        3        3        0      248      249      909      909     3646     3653      909     3648
     7183        3        3        3        0      249      250      909      909     3652     3660      909     3653
     7184        3        3        3        0      252      253      910      910     3668     3676      910     3670
     7185        3        3        3        0      253      254      910      910     3675     3682      910     3676
     7186        3        3        3        0      242      250      243      243     3607     3614      243     3606
     7187        3        3        3        0      246      254      239      239     3633     3588      239     3587
     7188        3        3        3        0      241      908      248      248     3600     3647      248     3599
     7189        3        3        3        0      242      909      250      250     3608     3660      250     3607
! ... 5 like lines cut
*set,_npilot,12948
_npilot28=_npilot
type,tid
mat ,cid
real,cid
tshape,pilo
en,7194,_npilot
tshape
/com,*********** Create Remote Point "Internal Remote Point 2" ***********
! -------- Remote Point Used by "Remote Force 2" --------
*set,tid,6
*set,cid,5
et,cid,174
et,tid,170
keyo,tid,2,1               ! Don't fix the pilot node
keyo,tid,4,111111
keyo,cid,12,5              ! Bonded Contact 
keyo,cid,4,1               ! Deformable RBE3 style load
keyo,cid,2,2               ! MPC style contact
eblock,10,,,16
(15i9)
     7195        5        5        5        0        2       10        3        3     2122     2130        3     2120
     7196        5        5        5        0        3       11        4        4     2131     2138        4     2129
     7197        5        5        5        0        4       12        5        5     2139     2146        5     2137
     7198        5        5        5        0        1        9        2        2     2115     2121        2     2113
     7199        5        5        5        0        5       12       13       13     2146     2190       13     2147
     7200        5        5        5        0        2        9       10       10     2121     2177       10     2122
     7201        5        5        5        0        4       11       12       12     2138     2186       12     2139
     7202        5        5        5        0        3       10       11       11     2130     2183       11     2131
     7203        5        5        5        0        6       13       14       14     2155     2196       14     2156
     7204        5        5        5        0        5       13        6        6     2147     2155        6     2145
     7205        5        5        5        0        7       14       15       15     2162     2199       15     2163
     7206        5        5        5        0        1        8        9        9     2114     2168        9     2115
     7207        5        5        5        0        6       14        7        7     2156     2162        7     2154
     7208        5        5        5        0        9        8       16       16     2168     2170       16     2178
     7209        5        5        5        0        8       15       16       16     2169     2202       16     2170
     7210        5        5        5        0        7       15        8        8     2163     2169        8     2161
-1
eblock,10,,,16
(15i9)
     7211        5        5        5        0      467      475      468      468     5026     5032      468     5024
     7212        5        5        5        0      469      468      476      476     5031     5033      476     5041
     7213        5        5        5        0      461      468      469      469     4981     5031      469     4982
     7214        5        5        5        0      465      473      466      466     5010     5018      466     5008
     7215        5        5        5        0      465      472      473      473     5009     5059      473     5010
     7216        5        5        5        0      464      471      472      472     5001     5054      472     5002
     7217        5        5        5        0      463      470      471      471     4995     5047      471     4996
     7218        5        5        5        0      462      470      463      463     4989     4995      463     4987
     7219        5        5        5        0      464      472      465      465     5002     5009      465     5000
     7220        5        5        5        0      463      471      464      464     4996     5001      464     4994
     7221        5        5        5        0      461      469      462      462     4982     4988      462     4980
     7222        5        5        5        0      462      469      470      470     4988     5040      470     4989
     7223        5        5        5        0      466      473      474      474     5018     5064      474     5019
     7224        5        5        5        0      467      474      475      475     5025     5069      475     5026
     7225        5        5        5        0      466      474      467      467     5019     5025      467     5017
     7226        5        5        5        0      468      475      476      476     5032     5075      476     5033
-1
*set,_npilot,12949
_npilot31=_npilot
type,tid
mat ,cid
real,cid
tshape,pilo
en,7227,_npilot
tshape
/com,*********** Construct Remote Force Using RBE3/CERIG Contact ***********

*DIM,_loadvari27x,TABLE,2,1,1,TIME,
! Time values
_loadvari27x(1,0,1) = 0.
_loadvari27x(2,0,1) = 1.
! Load values
_loadvari27x(1,1,1) = 0.
_loadvari27x(2,1,1) = 2.02e-002


*DIM,_loadvari27y,TABLE,2,1,1,TIME,
! Time values
_loadvari27y(1,0,1) = 0.
_loadvari27y(2,0,1) = 1.
! Load values
_loadvari27y(1,1,1) = 0.
_loadvari27y(2,1,1) = -0.2619


*DIM,_loadvari27z,TABLE,2,1,1,TIME,
! Time values
_loadvari27z(1,0,1) = 0.
_loadvari27z(2,0,1) = 1.
! Load values
_loadvari27z(1,1,1) = 0.
_loadvari27z(2,1,1) = 0.

/com,*********** Construct Remote Force Using RBE3/CERIG Contact ***********

*DIM,_loadvari30x,TABLE,2,1,1,TIME,
! Time values
_loadvari30x(1,0,1) = 0.
_loadvari30x(2,0,1) = 1.
! Load values
_loadvari30x(1,1,1) = 0.
_loadvari30x(2,1,1) = -626.6


*DIM,_loadvari30y,TABLE,2,1,1,TIME,
! Time values
_loadvari30y(1,0,1) = 0.
_loadvari30y(2,0,1) = 1.
! Load values
_loadvari30y(1,1,1) = 0.
_loadvari30y(2,1,1) = 806.8


*DIM,_loadvari30z,TABLE,2,1,1,TIME,
! Time values
_loadvari30z(1,0,1) = 0.
_loadvari30z(2,0,1) = 1.
! Load values
_loadvari30z(1,1,1) = 0.
_loadvari30z(2,1,1) = 0.

/gst,on,on
fini
*get,_numnode,node,0,count
*get,_numelem,elem,0,count
*get, _MAXELEMNUM, elem, 0, NUM, MAX
*get, _MAXNODENUM, node, 0, NUM, MAX
*get, _MAXELEMTYPE, etyp, 0, NUM, MAX
*get, _MAXREALCONST, real, 0, NUM, MAX
/go
/wb,load,end               !  done creating loads
/com,--- Number of total nodes = %_numnode%
/com,--- Number of contact elements = 132
/com,--- Number of spring elements = 0
/com,--- Number of bearing elements = 0
/com,--- Number of solid elements = 7091
/com,--- Number of total elements = %_numelem%
*get,_wallbsol,active,,time,wall
/com,****************************************************************************
/com,*************************    SOLUTION       ********************************
/com,****************************************************************************
/solu
antype,0                   ! static analysis
solc,on,on                 ! Turn on solution control with ability to use contact time prediction
eqsl,pcg,1e-8,,,,,,1
cntr,print,1               ! print out contact info and also make no initial contact an error
nldiag,cont,iter           ! print out contact info each equilibrium iteration
resc,linear,last           ! Turn on restart files due to future eigen analysis intent
/com,****************************************************
/com,******************* SOLVE FOR LS 1 ****************
esel,s,type,,2
nsle
sfe,all,1,pres,1,%_loadvari33x%
sfe,all,2,pres,1,%_loadvari33y%
sfe,all,3,pres,1,%_loadvari33z%
nsel,all
esel,all
nsel,s,node,,12948
f,all,fx,%_loadvari27x%
f,all,fy,%_loadvari27y%
f,all,fz,%_loadvari27z%
nsel,s,node,,12949
f,all,fx,%_loadvari30x%
f,all,fy,%_loadvari30y%
f,all,fz,%_loadvari30z%
nsel,all
/nopr
/gopr
nsub,1,1,1
time,1.
outres,erase
outres,all,none
outres,nsol,all
outres,rsol,all
outres,strs,all
outres,epel,all
outres,eppl,all
stabilize,off                   ! Stabilization turned OFF by user
! *********** WB SOLVE COMMAND ***********
! check interactive state
*get,ANSINTER_,active,,int
*if,ANSINTER_,ne,0,then
/eof
*endif
solve
/com *************** Write FE CONNECTORS ********* 
CEWRITE,file,ce,,INTE
/com,****************************************************
/com,*************** FINISHED SOLVE FOR LS 1 *************
*set,_DS_PROGRESS          ! turn off progress updates to avoid virus scanning bug
*get,_wallasol,active,,time,wall
*get,_PCGITER,active,,solu,cgiter
/post1
xmlo,ENCODING,ISO-8859-1
xmlo,parm
/xml,parm,xml
fini
/gopr
*get,_walldone,active,,time,wall
_preptime=(_wallbsol-_wallstrt)*3600
_solvtime=(_wallasol-_wallbsol)*3600
_posttime=(_walldone-_wallasol)*3600
_totaltim=(_walldone-_wallstrt)*3600
/wb,file,end               ! done with WB generated input
