/batch
*get,_wallstrt,active,,time,wall
! ANSYS input file written by Workbench version 15.0.7  Release
! File used for geometry attach: D:\MyDocs\Documents\Senior\Fall\Senior Design 1\AgileRoboticControls\SolidWorks Models\ANSYS\Models_files\dp0\SYS\DM\SYS.agdb
/title,Models--Static Structural (A5)
*DIM,_wb_ProjectScratch_dir,string,248
_wb_ProjectScratch_dir(1) = 'D:\MyDocs\Documents\Senior\Fall\Senior Design 1\AgileRoboticControls\SolidWorks Models\ANSYS\_ProjectScratch\ScrA1E9\'
*DIM,_wb_SolverFiles_dir,string,248
_wb_SolverFiles_dir(1) = 'D:\MyDocs\Documents\Senior\Fall\Senior Design 1\AgileRoboticControls\SolidWorks Models\ANSYS\Models_files\dp0\SYS\MECH\'
*DIM,_wb_userfiles_dir,string,248
_wb_userfiles_dir(1) = 'D:\MyDocs\Documents\Senior\Fall\Senior Design 1\AgileRoboticControls\SolidWorks Models\ANSYS\Models_files\user_files\'
/com,--- Data in consistent MKS units.
/units,MKS
/nopr
/wb,file,start              !  signify a WB generated input file
/prep7
! Turn off shape checking because checks already performed inside WB mesher.
! See help system for more information.
SHPP,OFF,,NOWARN
/nolist
etcon,set             ! allow ANSYS to choose best KEYOP's for 180x elements
/com,*********** Nodes for the whole assembly ***********
nblock,3
(1i9,3e20.9e3)
        1    5.000000000E-003    6.123233996E-019   -1.000000000E-002
        2    3.535533906E-003    3.535533906E-003   -1.000000000E-002
        3   -3.061616998E-019    5.000000000E-003   -1.000000000E-002
        4   -3.535533906E-003    3.535533906E-003   -1.000000000E-002
        5   -5.000000000E-003    0.000000000E+000   -1.000000000E-002
        6   -3.535533906E-003   -3.535533906E-003   -1.000000000E-002
        7   -3.061616998E-019   -5.000000000E-003   -1.000000000E-002
        8    3.535533906E-003   -3.535533906E-003   -1.000000000E-002
        9    5.000000000E-003    6.123233996E-019   -5.000000000E-003
       10    3.535533906E-003    3.535533906E-003   -5.000000000E-003
       11   -3.061616998E-019    5.000000000E-003   -5.000000000E-003
       12   -3.535533906E-003    3.535533906E-003   -5.000000000E-003
       13   -5.000000000E-003    0.000000000E+000   -5.000000000E-003
       14   -3.535533906E-003   -3.535533906E-003   -5.000000000E-003
       15   -3.061616998E-019   -5.000000000E-003   -5.000000000E-003
       16    3.535533906E-003   -3.535533906E-003   -5.000000000E-003
       17   -1.000000000E-002   -2.150000000E-001    1.500000000E-002
       18   -2.000000000E-002   -2.150000000E-001    5.000000000E-003
       19   -1.382683432E-002   -2.150000000E-001    1.423879533E-002
       20   -1.707106781E-002   -2.150000000E-001    1.207106781E-002
! ... 8189 like lines cut
/wb,elem,start            !  set before creation of elements
/com,*********** Elements for Body 1 "Solid" ***********
et,1,187
eblock,19,solid,,4279
(19i9)
        1        1        1        1        0        0        0        0       10        0        1      179      807      704      699     2482     5547     2481     2480
     5522     5520
        1        1        1        1        0        0        0        0       10        0        2      179      704      975      699     2481     5548     2485     2480
     5520     5523
        1        1        1        1        0        0        0        0       10        0        3      322     1131     1365     1172     3305     7354     3307     3306
     7350     7622
        1        1        1        1        0        0        0        0       10        0        4      171      704      975      179     2441     5548     2442     2440
     2481     2485
        1        1        1        1        0        0        0        0       10        0        5      987      988      993     1271     6667     6682     6671     6676
     6687     6722
        1        1        1        1        0        0        0        0       10        0        6      291     1365      322     1131     3129     3307     3124     3127
     7354     3305
        1        1        1        1        0        0        0        0       10        0        7      461     1273     1027      469     4121     6875     4120     4118
     4169     4168
        1        1        1        1        0        0        0        0       10        0        8       16     1032     1034     1380     1485     6885     1486     1487
     6889     6897
        1        1        1        1        0        0        0        0       10        0        9      702     1151      974      703     5540     6617     5539     5536
     5546     5544
        1        1        1        1        0        0        0        0       10        0       10      185      201     1306      202     2521     2618     2525     2522
     2611     2624
! ... 8539 like lines cut
!Material Id = {253CBE0B-7FF8-4D74-AB22-C994DD91DBF5}
/wb,elem,end               !  done creating elements
/com,*********** Send User Defined Coordinate System(s) ***********
csys,0
toffst,273.15,  ! Temperature offset from absolute zero
/com,*********** Set Reference Temperature ***********
tref,22.
/wb,mat,start              !  starting to send materials
/com,*********** Send Materials ***********
MP,DENS,1,2770,	! kg m^-3
MP,ALPX,1,2.3e-05,	! C^-1
MP,C,1,875,	! J kg^-1 C^-1
MPTEMP,,,,,,,,
MPTEMP,1,-100
MPTEMP,2,0
MPTEMP,3,100
MPTEMP,4,200
MPDATA,KXX,1, ,114,144,165,175,	! W m^-1 C^-1
MPTEMP,,,,,,,,
MPTEMP,,,,,,,,
MPTEMP,1,0
MPTEMP,2,20
MPTEMP,3,100
MPDATA,RSVX,1, ,2.43e-08,2.67e-08,3.63e-08,	! kg m^3 A^-2 s^-3
MPTEMP,,,,,,,,
MP,EX,1,71000000000,	! Pa
MP,NUXY,1,0.33,
MP,MURX,1,1,

/wb,mat,end                !  done sending materials
!************************* Model Summary ********************
!Solid,	Aluminum Alloy,	matid,	1
!************************* End Model Summary ********************
! get the diagonal of the bounding box. Needed later for other things
*get,_xmin,node,,mnloc,x
*get,_ymin,node,,mnloc,y
*get,_zmin,node,,mnloc,z
*get,_xmax,node,,mxloc,x
*get,_ymax,node,,mxloc,y
*get,_zmax,node,,mxloc,z
_ASMDIAG=(_xmax-_xmin)*(_xmax-_xmin)+(_ymax-_ymin)*(_ymax-_ymin)+(_zmax-_zmin)*(_zmax-_zmin)
_ASMDIAG=SQRT(_ASMDIAG)
/wb,contact,start          !  starting to send contact
/wb,contact,end            !  done creating contacts
/golist
/wb,load,start             !  starting to send loads
/com,******* Constant Zero Displacement X *******
CMBLOCK,_DISPZEROUX,NODE,      224
(8i10)
         1         2         3         4         5         6         7         8
         9        10        11        12        13        14        15        16
       239       240       241       242       243       244       245       246
       247       248       249       250       251       252       253       254
       461       462       463       464       465       466       467       468
       469       470       471       472       473       474       475       476
       683       684       685       686       687       688       689       690
       691       692       693       694       695       696       697       698
       903       904       905       906       907       908       909       910
      1389      1390      1391      1396      1397      1398      1404      1405
      1406      1413      1414      1415      1422      1423      1424      1429
      1430      1431      1437      1438      1439      1444      1445      1446
      1453      1454      1458      1463      1467      1472      1476      1481
      2803      2804      2805      2806      2811      2812      2816      2817
      2818      2819      2824      2825      2826      2830      2831      2832
      2837      2838      2843      2844      2845      2846      2850      2851
      2855      2856      2857      2862      2863      2864      2868      2869
      2874      2875      2876      2880      2881      2886      2887      2888
      2893      2894      2898      2899      4116      4117      4118      4122
      4123      4124      4127      4128      4129      4132      4133      4134
! ... 8 like lines cut

cmsel,s,_DISPZEROUX
d,all,ux,0
nsel,all
/com,******* Constant Zero Displacement Y *******
CMBLOCK,_DISPZEROUY,NODE,      224
(8i10)
         1         2         3         4         5         6         7         8
         9        10        11        12        13        14        15        16
       239       240       241       242       243       244       245       246
       247       248       249       250       251       252       253       254
       461       462       463       464       465       466       467       468
       469       470       471       472       473       474       475       476
       683       684       685       686       687       688       689       690
       691       692       693       694       695       696       697       698
       903       904       905       906       907       908       909       910
      1389      1390      1391      1396      1397      1398      1404      1405
      1406      1413      1414      1415      1422      1423      1424      1429
      1430      1431      1437      1438      1439      1444      1445      1446
      1453      1454      1458      1463      1467      1472      1476      1481
      2803      2804      2805      2806      2811      2812      2816      2817
      2818      2819      2824      2825      2826      2830      2831      2832
      2837      2838      2843      2844      2845      2846      2850      2851
      2855      2856      2857      2862      2863      2864      2868      2869
      2874      2875      2876      2880      2881      2886      2887      2888
      2893      2894      2898      2899      4116      4117      4118      4122
      4123      4124      4127      4128      4129      4132      4133      4134
! ... 8 like lines cut

cmsel,s,_DISPZEROUY
d,all,uy,0
nsel,all
/com,******* Constant Zero Displacement Z *******
CMBLOCK,_DISPZEROUZ,NODE,      224
(8i10)
         1         2         3         4         5         6         7         8
         9        10        11        12        13        14        15        16
       239       240       241       242       243       244       245       246
       247       248       249       250       251       252       253       254
       461       462       463       464       465       466       467       468
       469       470       471       472       473       474       475       476
       683       684       685       686       687       688       689       690
       691       692       693       694       695       696       697       698
       903       904       905       906       907       908       909       910
      1389      1390      1391      1396      1397      1398      1404      1405
      1406      1413      1414      1415      1422      1423      1424      1429
      1430      1431      1437      1438      1439      1444      1445      1446
      1453      1454      1458      1463      1467      1472      1476      1481
      2803      2804      2805      2806      2811      2812      2816      2817
      2818      2819      2824      2825      2826      2830      2831      2832
      2837      2838      2843      2844      2845      2846      2850      2851
      2855      2856      2857      2862      2863      2864      2868      2869
      2874      2875      2876      2880      2881      2886      2887      2888
      2893      2894      2898      2899      4116      4117      4118      4122
      4123      4124      4127      4128      4129      4132      4133      4134
! ... 8 like lines cut

cmsel,s,_DISPZEROUZ
d,all,uz,0
nsel,all
nsel,all
/com,*********** Define Force Using Surface Effect Elements ***********
local,12,0,0.,0.,0.,-0.,0.,0.
csys,0
et,2,154
eblock,10,,,38
(15i9)
     4282        2        2        2       12     1012     1016     1015     1015     6810     6827     1015     6809
     4283        2        2        2       12     1011     1014     1016     1016     6803     6823     1016     6804
     4284        2        2        2       12      258     1016      259      259     2918     2922      259     2916
     4285        2        2        2       12      257     1015      258      258     2913     2917      258     2911
     4286        2        2        2       12      295     1013      311      311     3153     3235      311     3151
     4287        2        2        2       12      193     1014     1013     1013     2571     6819     1013     2570
     4288        2        2        2       12      255     1015      257      257     2906     2913      257     2903
     4289        2        2        2       12      256      260     1014     1014     2907     2926     1014     2910
     4290        2        2        2       12      308      309     1012     1012     3221     3228     1012     3223
     4291        2        2        2       12      310      311     1017     1017     3231     3236     1017     3232
     4292        2        2        2       12      308     1012     1018     1018     3223     6812     1018     3224
     4293        2        2        2       12      444     1018     1015     1015     4045     6828     1015     4044
     4294        2        2        2       12      259     1016      260      260     2922     2927      260     2921
     4295        2        2        2       12      295      457     1013     1013     3152     4108     1013     3153
     4296        2        2        2       12     1011     1013     1014     1014     6802     6819     1014     6803
     4297        2        2        2       12      431      460     1018     1018     3959     4115     1018     3960
     4298        2        2        2       12      443     1015      459      459     4041     4113      459     4040
     4299        2        2        2       12      258     1015     1016     1016     2917     6827     1016     2918
     4300        2        2        2       12     1011     1016     1012     1012     6804     6810     1012     6801
     4301        2        2        2       12      192     1013      457      457     2568     4108      457     2567
! ... 19 like lines cut
esel,s,type,,2
keyop,2,2,1                ! Apply load in local coordinate system
keyop,2,7,1                ! Use original area so load is constant in large deformation
keyop,2,11,2               ! Use real and not project area
esel,all

*DIM,_loadvari33x,TABLE,2,1,1,TIME,
! Time values
_loadvari33x(1,0,1) = 0.
_loadvari33x(2,0,1) = 1.
! Load values
_loadvari33x(1,1,1) = 0.
_loadvari33x(2,1,1) = -4874.85546549216


*DIM,_loadvari33y,TABLE,2,1,1,TIME,
! Time values
_loadvari33y(1,0,1) = 0.
_loadvari33y(2,0,1) = 1.
! Load values
_loadvari33y(1,1,1) = 0.
_loadvari33y(2,1,1) = 63405.9658222649


*DIM,_loadvari33z,TABLE,2,1,1,TIME,
! Time values
_loadvari33z(1,0,1) = 0.
_loadvari33z(2,0,1) = 1.
! Load values
_loadvari33z(1,1,1) = 0.
_loadvari33z(2,1,1) = 0.

/com,*********** Create Remote Point "Internal Remote Point" ***********
! -------- Remote Point Used by "Remote Force" --------
*set,tid,4
*set,cid,3
et,cid,174
et,tid,170
keyo,tid,2,1               ! Don't fix the pilot node
keyo,tid,4,111111
keyo,cid,12,5              ! Bonded Contact 
keyo,cid,4,1               ! Deformable RBE3 style load
keyo,cid,2,2               ! MPC style contact
eblock,10,,,24
(15i9)
     4320        3        3        3        0      686      905      694      694     5445     5494      694     5444
     4321        3        3        3        0      690      698      683      683     5468     5424      683     5423
     4322        3        3        3        0      686      694      687      687     5444     5450      687     5443
     4323        3        3        3        0      697      698      906      906     5509     5515      906     5510
     4324        3        3        3        0      693      694      905      905     5486     5494      905     5487
     4325        3        3        3        0      690      689      906      906     5461     5464      906     5469
     4326        3        3        3        0      686      685      905      905     5435     5438      905     5445
     4327        3        3        3        0      698      691      904      904     5474     5475      904     5514
     4328        3        3        3        0      683      698      904      904     5424     5514      904     5425
     4329        3        3        3        0      694      695      903      903     5492     5499      903     5493
     4330        3        3        3        0      695      696      903      903     5498     5503      903     5499
     4331        3        3        3        0      688      687      903      903     5449     5451      903     5456
     4332        3        3        3        0      687      694      903      903     5450     5493      903     5451
     4333        3        3        3        0      684      683      904      904     5422     5425      904     5431
     4334        3        3        3        0      691      692      904      904     5473     5481      904     5475
     4335        3        3        3        0      685      684      904      904     5430     5431      904     5437
     4336        3        3        3        0      689      688      903      903     5455     5456      903     5463
     4337        3        3        3        0      692      693      905      905     5480     5487      905     5482
     4338        3        3        3        0      696      697      906      906     5502     5510      906     5504
     4339        3        3        3        0      903      696      689      689     5503     5462      689     5463
! ... 5 like lines cut
eblock,10,,,24
(15i9)
     4344        3        3        3        0      251      252      907      907     2880     2887      907     2881
     4345        3        3        3        0      244      243      907      907     2830     2832      907     2838
     4346        3        3        3        0      243      250      907      907     2831     2875      907     2832
     4347        3        3        3        0      250      251      907      907     2874     2881      907     2875
     4348        3        3        3        0      240      239      908      908     2803     2806      908     2812
     4349        3        3        3        0      239      254      908      908     2805     2898      908     2806
     4350        3        3        3        0      247      248      908      908     2855     2863      908     2857
     4351        3        3        3        0      254      247      908      908     2856     2857      908     2898
     4352        3        3        3        0      241      240      908      908     2811     2812      908     2818
     4353        3        3        3        0      242      241      909      909     2816     2819      909     2826
     4354        3        3        3        0      245      244      907      907     2837     2838      907     2845
     4355        3        3        3        0      246      245      910      910     2843     2846      910     2851
     4356        3        3        3        0      248      249      909      909     2862     2869      909     2864
     4357        3        3        3        0      249      250      909      909     2868     2876      909     2869
     4358        3        3        3        0      252      253      910      910     2886     2894      910     2888
     4359        3        3        3        0      253      254      910      910     2893     2899      910     2894
     4360        3        3        3        0      242      250      243      243     2825     2831      243     2824
     4361        3        3        3        0      246      254      239      239     2850     2805      239     2804
     4362        3        3        3        0      241      908      248      248     2818     2863      248     2817
     4363        3        3        3        0      242      909      250      250     2826     2876      250     2825
! ... 5 like lines cut
*set,_npilot,8207
_npilot28=_npilot
type,tid
mat ,cid
real,cid
tshape,pilo
en,4368,_npilot
tshape
/com,*********** Create Remote Point "Internal Remote Point 2" ***********
! -------- Remote Point Used by "Remote Force 2" --------
*set,tid,6
*set,cid,5
et,cid,174
et,tid,170
keyo,tid,2,1               ! Don't fix the pilot node
keyo,tid,4,111111
keyo,cid,12,5              ! Bonded Contact 
keyo,cid,4,1               ! Deformable RBE3 style load
keyo,cid,2,2               ! MPC style contact
eblock,10,,,16
(15i9)
     4369        5        5        5        0        2       10        3        3     1398     1405        3     1396
     4370        5        5        5        0        3       11        4        4     1406     1414        4     1404
     4371        5        5        5        0        4       12        5        5     1415     1423        5     1413
     4372        5        5        5        0        1        9        2        2     1391     1397        2     1389
     4373        5        5        5        0        5       12       13       13     1423     1467       13     1424
     4374        5        5        5        0        2        9       10       10     1397     1453       10     1398
     4375        5        5        5        0        4       11       12       12     1414     1463       12     1415
     4376        5        5        5        0        3       10       11       11     1405     1458       11     1406
     4377        5        5        5        0        6       13       14       14     1430     1472       14     1431
     4378        5        5        5        0        5       13        6        6     1424     1430        6     1422
     4379        5        5        5        0        7       14       15       15     1438     1476       15     1439
     4380        5        5        5        0        1        8        9        9     1390     1444        9     1391
     4381        5        5        5        0        6       14        7        7     1431     1438        7     1429
     4382        5        5        5        0        9        8       16       16     1444     1446       16     1454
     4383        5        5        5        0        8       15       16       16     1445     1481       16     1446
     4384        5        5        5        0        7       15        8        8     1439     1445        8     1437
-1
eblock,10,,,16
(15i9)
     4385        5        5        5        0      467      475      468      468     4152     4157      468     4150
     4386        5        5        5        0      469      468      476      476     4156     4158      476     4164
     4387        5        5        5        0      461      468      469      469     4117     4156      469     4118
     4388        5        5        5        0      465      473      466      466     4139     4145      466     4137
     4389        5        5        5        0      465      472      473      473     4138     4182      473     4139
     4390        5        5        5        0      464      471      472      472     4133     4176      472     4134
     4391        5        5        5        0      463      470      471      471     4128     4170      471     4129
     4392        5        5        5        0      462      470      463      463     4124     4128      463     4122
     4393        5        5        5        0      464      472      465      465     4134     4138      465     4132
     4394        5        5        5        0      463      471      464      464     4129     4133      464     4127
     4395        5        5        5        0      461      469      462      462     4118     4123      462     4116
     4396        5        5        5        0      462      469      470      470     4123     4163      470     4124
     4397        5        5        5        0      466      473      474      474     4145     4189      474     4146
     4398        5        5        5        0      467      474      475      475     4151     4195      475     4152
     4399        5        5        5        0      466      474      467      467     4146     4151      467     4144
     4400        5        5        5        0      468      475      476      476     4157     4201      476     4158
-1
*set,_npilot,8208
_npilot31=_npilot
type,tid
mat ,cid
real,cid
tshape,pilo
en,4401,_npilot
tshape
/com,*********** Construct Remote Force Using RBE3/CERIG Contact ***********

*DIM,_loadvari27x,TABLE,2,1,1,TIME,
! Time values
_loadvari27x(1,0,1) = 0.
_loadvari27x(2,0,1) = 1.
! Load values
_loadvari27x(1,1,1) = 0.
_loadvari27x(2,1,1) = 2.02e-002


*DIM,_loadvari27y,TABLE,2,1,1,TIME,
! Time values
_loadvari27y(1,0,1) = 0.
_loadvari27y(2,0,1) = 1.
! Load values
_loadvari27y(1,1,1) = 0.
_loadvari27y(2,1,1) = -0.2619


*DIM,_loadvari27z,TABLE,2,1,1,TIME,
! Time values
_loadvari27z(1,0,1) = 0.
_loadvari27z(2,0,1) = 1.
! Load values
_loadvari27z(1,1,1) = 0.
_loadvari27z(2,1,1) = 0.

/com,*********** Construct Remote Force Using RBE3/CERIG Contact ***********

*DIM,_loadvari30x,TABLE,2,1,1,TIME,
! Time values
_loadvari30x(1,0,1) = 0.
_loadvari30x(2,0,1) = 1.
! Load values
_loadvari30x(1,1,1) = 0.
_loadvari30x(2,1,1) = -626.6


*DIM,_loadvari30y,TABLE,2,1,1,TIME,
! Time values
_loadvari30y(1,0,1) = 0.
_loadvari30y(2,0,1) = 1.
! Load values
_loadvari30y(1,1,1) = 0.
_loadvari30y(2,1,1) = 806.8


*DIM,_loadvari30z,TABLE,2,1,1,TIME,
! Time values
_loadvari30z(1,0,1) = 0.
_loadvari30z(2,0,1) = 1.
! Load values
_loadvari30z(1,1,1) = 0.
_loadvari30z(2,1,1) = 0.

/gst,on,on
fini
*get,_numnode,node,0,count
*get,_numelem,elem,0,count
*get, _MAXELEMNUM, elem, 0, NUM, MAX
*get, _MAXNODENUM, node, 0, NUM, MAX
*get, _MAXELEMTYPE, etyp, 0, NUM, MAX
*get, _MAXREALCONST, real, 0, NUM, MAX
/go
/wb,load,end               !  done creating loads
/com,--- Number of total nodes = %_numnode%
/com,--- Number of contact elements = 118
/com,--- Number of spring elements = 0
/com,--- Number of bearing elements = 0
/com,--- Number of solid elements = 4279
/com,--- Number of total elements = %_numelem%
*get,_wallbsol,active,,time,wall
/com,****************************************************************************
/com,*************************    SOLUTION       ********************************
/com,****************************************************************************
/solu
antype,0                   ! static analysis
solc,on,on                 ! Turn on solution control with ability to use contact time prediction
eqsl,pcg,1e-8,,,,,,1
cntr,print,1               ! print out contact info and also make no initial contact an error
nldiag,cont,iter           ! print out contact info each equilibrium iteration
resc,linear,last           ! Turn on restart files due to future eigen analysis intent
/com,****************************************************
/com,******************* SOLVE FOR LS 1 ****************
esel,s,type,,2
nsle
sfe,all,1,pres,1,%_loadvari33x%
sfe,all,2,pres,1,%_loadvari33y%
sfe,all,3,pres,1,%_loadvari33z%
nsel,all
esel,all
nsel,s,node,,8207
f,all,fx,%_loadvari27x%
f,all,fy,%_loadvari27y%
f,all,fz,%_loadvari27z%
nsel,s,node,,8208
f,all,fx,%_loadvari30x%
f,all,fy,%_loadvari30y%
f,all,fz,%_loadvari30z%
nsel,all
/nopr
/gopr
nsub,1,1,1
time,1.
outres,erase
outres,all,none
outres,nsol,all
outres,rsol,all
outres,strs,all
outres,epel,all
outres,eppl,all
stabilize,off                   ! Stabilization turned OFF by user
! *********** WB SOLVE COMMAND ***********
! check interactive state
*get,ANSINTER_,active,,int
*if,ANSINTER_,ne,0,then
/eof
*endif
solve
/com *************** Write FE CONNECTORS ********* 
CEWRITE,file,ce,,INTE
/com,****************************************************
/com,*************** FINISHED SOLVE FOR LS 1 *************
*set,_DS_PROGRESS          ! turn off progress updates to avoid virus scanning bug
*get,_wallasol,active,,time,wall
*get,_PCGITER,active,,solu,cgiter
/post1
xmlo,ENCODING,ISO-8859-1
xmlo,parm
/xml,parm,xml
fini
/gopr
*get,_walldone,active,,time,wall
_preptime=(_wallbsol-_wallstrt)*3600
_solvtime=(_wallasol-_wallbsol)*3600
_posttime=(_walldone-_wallasol)*3600
_totaltim=(_walldone-_wallstrt)*3600
/wb,file,end               ! done with WB generated input
