/batch
*get,_wallstrt,active,,time,wall
! ANSYS input file written by Workbench version 15.0.7  Release
! File used for geometry attach: D:\MyDocs\Documents\Senior\Fall\Senior Design 1\AgileRoboticControls\SolidWorks Models\ANSYS\Models_files\dp0\SYS-1\DM\SYS-1.agdb
/title,Models--Static Structural (B5)
*DIM,_wb_ProjectScratch_dir,string,248
_wb_ProjectScratch_dir(1) = 'D:\MyDocs\Documents\Senior\Fall\Senior Design 1\AgileRoboticControls\SolidWorks Models\ANSYS\_ProjectScratch\Scr12FF\'
*DIM,_wb_SolverFiles_dir,string,248
_wb_SolverFiles_dir(1) = 'D:\MyDocs\Documents\Senior\Fall\Senior Design 1\AgileRoboticControls\SolidWorks Models\ANSYS\Models_files\dp0\SYS-1\MECH\'
*DIM,_wb_userfiles_dir,string,248
_wb_userfiles_dir(1) = 'D:\MyDocs\Documents\Senior\Fall\Senior Design 1\AgileRoboticControls\SolidWorks Models\ANSYS\Models_files\user_files\'
/com,--- Data in consistent MKS units.
/units,MKS
/nopr
/wb,file,start              !  signify a WB generated input file
/prep7
! Turn off shape checking because checks already performed inside WB mesher.
! See help system for more information.
SHPP,OFF,,NOWARN
/nolist
etcon,set             ! allow ANSYS to choose best KEYOP's for 180x elements
/com,*********** Nodes for the whole assembly ***********
nblock,3
(1i9,3e20.9e3)
        1    1.750000000E-002   -2.627831216E-001   -2.500000000E-003
        2    1.500000000E-002   -2.584529946E-001   -2.500000000E-003
        3    1.750000000E-002   -2.627831216E-001   -5.000000000E-003
        4    1.500000000E-002   -2.584529946E-001   -5.000000000E-003
        5    7.343266740E-002   -3.528108891E-001   -7.500000000E-003
        6    7.343266740E-002   -3.528108891E-001   -1.500000000E-002
        7    8.093266740E-002   -3.398205081E-001   -7.500000000E-003
        8    7.718266740E-002   -3.463156986E-001   -7.500000000E-003
        9    8.093266740E-002   -3.398205081E-001   -1.500000000E-002
       10    7.718266740E-002   -3.463156986E-001   -1.500000000E-002
       11    9.941342951E-002   -3.678108891E-001   -7.500000000E-003
       12    7.142304845E-002   -3.603108891E-001   -7.500000000E-003
       13    7.343266740E-002   -3.678108891E-001   -7.500000000E-003
       14    7.892304845E-002   -3.733012702E-001   -7.500000000E-003
       15    8.642304845E-002   -3.753108891E-001   -7.500000000E-003
       16    9.392304845E-002   -3.733012702E-001   -7.500000000E-003
       17    9.941342951E-002   -3.678108891E-001   -1.500000000E-002
       18    7.142304845E-002   -3.603108891E-001   -1.500000000E-002
       19    7.343266740E-002   -3.678108891E-001   -1.500000000E-002
       20    7.892304845E-002   -3.733012702E-001   -1.500000000E-002
! ... 8018 like lines cut
/wb,elem,start            !  set before creation of elements
/com,*********** Elements for Body 1 "Solid" ***********
et,1,187
eblock,19,solid,,4135
(19i9)
        1        1        1        1        0        0        0        0       10        0        1      721     1253      766     1204     5817     6092     5812     5816
     7769     6091
        1        1        1        1        0        0        0        0       10        0        2      204     1002     1168      643     2611     7073     2613     2609
     5331     5332
        1        1        1        1        0        0        0        0       10        0        3      194     1300     1133     1175     2547     7423     2544     2545
     7632     7421
        1        1        1        1        0        0        0        0       10        0        4      472      549      548     1300     4272     4758     4271     4277
     4765     4761
        1        1        1        1        0        0        0        0       10        0        5      388     1282      454      453     3771     4140     3767     3766
     4135     4131
        1        1        1        1        0        0        0        0       10        0        6      631      633     1183     1179     5254     5273     5260     5259
     5271     7647
        1        1        1        1        0        0        0        0       10        0        7      253     1010     1173      635     2977     7090     2979     2975
     5286     5287
        1        1        1        1        0        0        0        0       10        0        8      537      538      696     1253     4696     4702     4697     4699
     4705     5671
        1        1        1        1        0        0        0        0       10        0        9      949     1278      959      950     6916     6951     6914     6912
     6922     6918
        1        1        1        1        0        0        0        0       10        0       10        3      461     1167      459     1387     4173     1391     1386
     4161     4165
! ... 8251 like lines cut
!Material Id = {8DA72CD3-6C0F-4959-95B7-29247A8FD699}
/wb,elem,end               !  done creating elements
/com,*********** Send User Defined Coordinate System(s) ***********
csys,0
toffst,273.15,  ! Temperature offset from absolute zero
/com,*********** Set Reference Temperature ***********
tref,22.
/wb,mat,start              !  starting to send materials
/com,*********** Send Materials ***********
MP,DENS,1,2770,	! kg m^-3
MP,ALPX,1,2.3e-05,	! C^-1
MP,C,1,875,	! J kg^-1 C^-1
MPTEMP,,,,,,,,
MPTEMP,1,-100
MPTEMP,2,0
MPTEMP,3,100
MPTEMP,4,200
MPDATA,KXX,1, ,114,144,165,175,	! W m^-1 C^-1
MPTEMP,,,,,,,,
MPTEMP,,,,,,,,
MPTEMP,1,0
MPTEMP,2,20
MPTEMP,3,100
MPDATA,RSVX,1, ,2.43e-08,2.67e-08,3.63e-08,	! kg m^3 A^-2 s^-3
MPTEMP,,,,,,,,
MP,EX,1,71000000000,	! Pa
MP,NUXY,1,0.33,
MP,MURX,1,1,

/wb,mat,end                !  done sending materials
!************************* Model Summary ********************
!Solid,	Aluminum Alloy,	matid,	1
!************************* End Model Summary ********************
! get the diagonal of the bounding box. Needed later for other things
*get,_xmin,node,,mnloc,x
*get,_ymin,node,,mnloc,y
*get,_zmin,node,,mnloc,z
*get,_xmax,node,,mxloc,x
*get,_ymax,node,,mxloc,y
*get,_zmax,node,,mxloc,z
_ASMDIAG=(_xmax-_xmin)*(_xmax-_xmin)+(_ymax-_ymin)*(_ymax-_ymin)+(_zmax-_zmin)*(_zmax-_zmin)
_ASMDIAG=SQRT(_ASMDIAG)
/wb,contact,start          !  starting to send contact
/wb,contact,end            !  done creating contacts
/golist
/wb,load,start             !  starting to send loads
/com,******* Constant Zero Displacement X *******
CMBLOCK,_DISPZEROUX,NODE,      164
(8i10)
        65        66        67        68        69        70        71        72
        73        74        75        76        77        78        79        80
       649       650       651       652       653       654       655       656
       657       658       659       660       661       662       663       664
       804       805       806       807       808       809       810       811
       812       813       814       815       816       817       818       819
       989       990       991       992       993      1709      1710      1711
      1714      1715      1716      1717      1720      1721      1722      1725
      1726      1727      1728      1731      1732      1733      1736      1737
      1739      1740      1741      1744      1745      1748      1749      1756
      1757      1760      1761      1764      1765      5354      5355      5358
      5359      5362      5363      5366      5368      5369      5370      5372
      5373      5377      5378      5379      5385      5389      5390      5395
      5399      5402      5403      5408      5409      5412      5413      5416
      5417      5420      5422      5423      5425      5426      5428      5429
      5430      5436      5440      5441      5446      5452      5453      6254
      6255      6256      6262      6263      6264      6265      6268      6269
      6270      6273      6274      6275      6276      6279      6280      6281
      6285      6286      6289      6290      6291      6294      6295      6299
      6300      6303      6304      6307      6308      6311      6312      7029
      7030      7036      7037      7050
cmsel,s,_DISPZEROUX
d,all,ux,0
nsel,all
/com,******* Constant Zero Displacement Y *******
CMBLOCK,_DISPZEROUY,NODE,      164
(8i10)
        65        66        67        68        69        70        71        72
        73        74        75        76        77        78        79        80
       649       650       651       652       653       654       655       656
       657       658       659       660       661       662       663       664
       804       805       806       807       808       809       810       811
       812       813       814       815       816       817       818       819
       989       990       991       992       993      1709      1710      1711
      1714      1715      1716      1717      1720      1721      1722      1725
      1726      1727      1728      1731      1732      1733      1736      1737
      1739      1740      1741      1744      1745      1748      1749      1756
      1757      1760      1761      1764      1765      5354      5355      5358
      5359      5362      5363      5366      5368      5369      5370      5372
      5373      5377      5378      5379      5385      5389      5390      5395
      5399      5402      5403      5408      5409      5412      5413      5416
      5417      5420      5422      5423      5425      5426      5428      5429
      5430      5436      5440      5441      5446      5452      5453      6254
      6255      6256      6262      6263      6264      6265      6268      6269
      6270      6273      6274      6275      6276      6279      6280      6281
      6285      6286      6289      6290      6291      6294      6295      6299
      6300      6303      6304      6307      6308      6311      6312      7029
      7030      7036      7037      7050
cmsel,s,_DISPZEROUY
d,all,uy,0
nsel,all
/com,******* Constant Zero Displacement Z *******
CMBLOCK,_DISPZEROUZ,NODE,      164
(8i10)
        65        66        67        68        69        70        71        72
        73        74        75        76        77        78        79        80
       649       650       651       652       653       654       655       656
       657       658       659       660       661       662       663       664
       804       805       806       807       808       809       810       811
       812       813       814       815       816       817       818       819
       989       990       991       992       993      1709      1710      1711
      1714      1715      1716      1717      1720      1721      1722      1725
      1726      1727      1728      1731      1732      1733      1736      1737
      1739      1740      1741      1744      1745      1748      1749      1756
      1757      1760      1761      1764      1765      5354      5355      5358
      5359      5362      5363      5366      5368      5369      5370      5372
      5373      5377      5378      5379      5385      5389      5390      5395
      5399      5402      5403      5408      5409      5412      5413      5416
      5417      5420      5422      5423      5425      5426      5428      5429
      5430      5436      5440      5441      5446      5452      5453      6254
      6255      6256      6262      6263      6264      6265      6268      6269
      6270      6273      6274      6275      6276      6279      6280      6281
      6285      6286      6289      6290      6291      6294      6295      6299
      6300      6303      6304      6307      6308      6311      6312      7029
      7030      7036      7037      7050
cmsel,s,_DISPZEROUZ
d,all,uz,0
nsel,all
nsel,all
/com,*********** Create Remote Point "Internal Remote Point" ***********
! -------- Remote Point Used by "Remote Force" --------
*set,tid,3
*set,cid,2
et,cid,174
et,tid,170
keyo,tid,2,1               ! Don't fix the pilot node
keyo,tid,4,111111
keyo,cid,12,5              ! Bonded Contact 
keyo,cid,4,1               ! Deformable RBE3 style load
keyo,cid,2,2               ! MPC style contact
eblock,10,,,16
(15i9)
     4140        2        2        2        0      808      812      816      816     6279     6299      816     6281
     4141        2        2        2        0      804      811      812      812     6255     6294      812     6256
     4142        2        2        2        0      804      812      808      808     6256     6279      808     6254
     4143        2        2        2        0      812      811      819      819     6294     6295      819     6300
     4144        2        2        2        0      806      809      814      814     6268     6285      814     6270
     4145        2        2        2        0      810      814      818      818     6289     6308      818     6291
     4146        2        2        2        0      814      809      817      817     6285     6286      817     6307
     4147        2        2        2        0      806      814      810      810     6270     6289      810     6269
     4148        2        2        2        0      805      808      813      813     6262     6280      813     6264
     4149        2        2        2        0      809      805      817      817     6263     6265      817     6286
     4150        2        2        2        0      807      810      815      815     6273     6290      815     6275
     4151        2        2        2        0      811      807      819      819     6274     6276      819     6295
     4152        2        2        2        0      813      808      816      816     6280     6281      816     6303
     4153        2        2        2        0      813      817      805      805     6304     6265      805     6264
     4154        2        2        2        0      815      810      818      818     6290     6291      818     6311
     4155        2        2        2        0      815      819      807      807     6312     6276      807     6275
-1
eblock,10,,,16
(15i9)
     4156        2        2        2        0       69       73       77       77     1731     1748       77     1733
     4157        2        2        2        0       65       72       73       73     1710     1744       73     1711
     4158        2        2        2        0       65       73       69       69     1711     1731       69     1709
     4159        2        2        2        0       73       72       80       80     1744     1745       80     1749
     4160        2        2        2        0       67       70       75       75     1720     1736       75     1722
     4161        2        2        2        0       71       75       79       79     1739     1761       79     1741
     4162        2        2        2        0       75       70       78       78     1736     1737       78     1760
     4163        2        2        2        0       67       75       71       71     1722     1739       71     1721
     4164        2        2        2        0       66       69       74       74     1714     1732       74     1716
     4165        2        2        2        0       70       66       78       78     1715     1717       78     1737
     4166        2        2        2        0       68       71       76       76     1725     1740       76     1727
     4167        2        2        2        0       72       68       80       80     1726     1728       80     1745
     4168        2        2        2        0       74       69       77       77     1732     1733       77     1756
     4169        2        2        2        0       74       78       66       66     1757     1717       66     1716
     4170        2        2        2        0       76       71       79       79     1740     1741       79     1764
     4171        2        2        2        0       76       80       68       68     1765     1728       68     1727
-1
*set,_npilot,8034
_npilot30=_npilot
type,tid
mat ,cid
real,cid
tshape,pilo
en,4172,_npilot
tshape
/com,*********** Create Remote Point "Internal Remote Point 2" ***********
! -------- Remote Point Used by "Remote Force 2" --------
*set,tid,5
*set,cid,4
et,cid,174
et,tid,170
keyo,tid,2,1               ! Don't fix the pilot node
keyo,tid,4,111111
keyo,cid,12,5              ! Bonded Contact 
keyo,cid,4,1               ! Deformable RBE3 style load
keyo,cid,2,2               ! MPC style contact
eblock,10,,,16
(15i9)
     4173        4        4        4        0       31       27       39       39     1518     1521       39     1545
     4174        4        4        4        0       29       32       40       40     1532     1549       40     1535
     4175        4        4        4        0       33       29       41       41     1533     1536       41     1552
     4176        4        4        4        0       27       34       42       42     1519     1555       42     1522
     4177        4        4        4        0       35       39       27       27     1558     1521       27     1520
     4178        4        4        4        0       40       37       29       29     1568     1534       29     1535
     4179        4        4        4        0       37       41       29       29     1569     1536       29     1534
     4180        4        4        4        0       42       35       27       27     1559     1520       27     1522
     4181        4        4        4        0       28       31       36       36     1525     1544       36     1527
     4182        4        4        4        0       32       36       40       40     1548     1563       40     1549
     4183        4        4        4        0       30       33       38       38     1539     1551       38     1541
     4184        4        4        4        0       34       38       42       42     1554     1573       42     1555
     4185        4        4        4        0       36       31       39       39     1544     1545       39     1562
     4186        4        4        4        0       28       36       32       32     1527     1548       32     1526
     4187        4        4        4        0       38       33       41       41     1551     1552       41     1572
     4188        4        4        4        0       30       38       34       34     1541     1554       34     1540
-1
eblock,10,,,16
(15i9)
     4189        4        4        4        0      846      842      854      854     6445     6448      854     6472
     4190        4        4        4        0      844      847      855      855     6459     6479      855     6462
     4191        4        4        4        0      848      844      856      856     6460     6463      856     6482
     4192        4        4        4        0      842      849      857      857     6446     6486      857     6449
     4193        4        4        4        0      850      854      842      842     6489     6448      842     6447
     4194        4        4        4        0      855      852      844      844     6499     6461      844     6462
     4195        4        4        4        0      852      856      844      844     6500     6463      844     6461
     4196        4        4        4        0      857      850      842      842     6490     6447      842     6449
     4197        4        4        4        0      843      846      851      851     6452     6471      851     6454
     4198        4        4        4        0      847      851      855      855     6478     6494      855     6479
     4199        4        4        4        0      845      848      853      853     6466     6481      853     6468
     4200        4        4        4        0      849      853      857      857     6485     6504      857     6486
     4201        4        4        4        0      851      846      854      854     6471     6472      854     6493
     4202        4        4        4        0      843      851      847      847     6454     6478      847     6453
     4203        4        4        4        0      853      848      856      856     6481     6482      856     6503
     4204        4        4        4        0      845      853      849      849     6468     6485      849     6467
-1
*set,_npilot,8035
_npilot33=_npilot
type,tid
mat ,cid
real,cid
tshape,pilo
en,4205,_npilot
tshape
/com,*********** Create Remote Point "Internal Remote Point 3" ***********
! -------- Remote Point Used by "Remote Force 3" --------
*set,tid,7
*set,cid,6
et,cid,174
et,tid,170
keyo,tid,2,1               ! Don't fix the pilot node
keyo,tid,4,111111
keyo,cid,12,5              ! Bonded Contact 
keyo,cid,4,1               ! Deformable RBE3 style load
keyo,cid,2,2               ! MPC style contact
eblock,10,,,16
(15i9)
     4206        6        6        6        0      777      781      785      785     6140     6159      785     6142
     4207        6        6        6        0      781      786      789      789     6160     6181      789     6161
     4208        6        6        6        0      778      782      786      786     6147     6163      786     6148
     4209        6        6        6        0      782      787      790      790     6164     6184      790     6165
     4210        6        6        6        0      779      783      787      787     6151     6168      787     6152
     4211        6        6        6        0      783      788      791      791     6169     6188      791     6170
     4212        6        6        6        0      780      784      788      788     6156     6173      788     6157
     4213        6        6        6        0      784      777      792      792     6141     6143      792     6174
     4214        6        6        6        0      785      781      789      789     6159     6161      789     6177
     4215        6        6        6        0      778      786      781      781     6148     6160      781     6146
     4216        6        6        6        0      786      782      790      790     6163     6165      790     6182
     4217        6        6        6        0      779      787      782      782     6152     6164      782     6150
     4218        6        6        6        0      787      783      791      791     6168     6170      791     6185
     4219        6        6        6        0      780      788      783      783     6157     6169      783     6155
     4220        6        6        6        0      788      784      792      792     6173     6174      792     6189
     4221        6        6        6        0      785      792      777      777     6178     6143      777     6142
-1
*set,_npilot,8036
_npilot36=_npilot
type,tid
mat ,cid
real,cid
tshape,pilo
en,4222,_npilot
tshape
/com,*********** Create Remote Point "Internal Remote Point 4" ***********
! -------- Remote Point Used by "Remote Force 4" --------
*set,tid,9
*set,cid,8
et,cid,174
et,tid,170
keyo,tid,2,1               ! Don't fix the pilot node
keyo,tid,4,111111
keyo,cid,12,5              ! Bonded Contact 
keyo,cid,4,1               ! Deformable RBE3 style load
keyo,cid,2,2               ! MPC style contact
eblock,10,,,26
(15i9)
     4223        8        8        8        0      649      992      989      989     5359     7029      989     5358
     4224        8        8        8        0      661      657      993      993     5408     5413      993     5436
     4225        8        8        8        0      650      654      992      992     5363     5390      992     5366
     4226        8        8        8        0      655      652      991      991     5377     5379      991     5395
     4227        8        8        8        0      656      649      989      989     5355     5358      989     5402
     4228        8        8        8        0      662      993      990      990     5441     7037      990     5440
     4229        8        8        8        0      660      663      991      991     5428     5446      991     5430
     4230        8        8        8        0      657      664      989      989     5409     5452      989     5412
     4231        8        8        8        0      653      650      992      992     5362     5366      992     5385
     4232        8        8        8        0      654      651      990      990     5368     5372      990     5389
     4233        8        8        8        0      651      655      991      991     5369     5395      991     5373
     4234        8        8        8        0      652      656      991      991     5378     5403      991     5379
     4235        8        8        8        0      658      661      993      993     5416     5436      993     5420
     4236        8        8        8        0      659      662      990      990     5422     5440      990     5425
     4237        8        8        8        0      663      659      991      991     5423     5426      991     5446
     4238        8        8        8        0      664      660      991      991     5429     5430      991     5453
     4239        8        8        8        0      653      992      649      649     5385     5359      649     5354
     4240        8        8        8        0      993      657      989      989     5413     5412      989     7030
     4241        8        8        8        0      992      654      990      990     5390     5389      990     7036
     4242        8        8        8        0      656      989      664      664     5402     5452      664     5399
! ... 7 like lines cut
*set,_npilot,8037
_npilot39=_npilot
type,tid
mat ,cid
real,cid
tshape,pilo
en,4249,_npilot
tshape
/com,*********** Construct Remote Force Using RBE3/CERIG Contact ***********

*DIM,_loadvari29x,TABLE,2,1,1,TIME,
! Time values
_loadvari29x(1,0,1) = 0.
_loadvari29x(2,0,1) = 1.
! Load values
_loadvari29x(1,1,1) = 0.
_loadvari29x(2,1,1) = 73.59


*DIM,_loadvari29y,TABLE,2,1,1,TIME,
! Time values
_loadvari29y(1,0,1) = 0.
_loadvari29y(2,0,1) = 1.
! Load values
_loadvari29y(1,1,1) = 0.
_loadvari29y(2,1,1) = -25.45


*DIM,_loadvari29z,TABLE,2,1,1,TIME,
! Time values
_loadvari29z(1,0,1) = 0.
_loadvari29z(2,0,1) = 1.
! Load values
_loadvari29z(1,1,1) = 0.
_loadvari29z(2,1,1) = 0.

/com,*********** Construct Remote Force Using RBE3/CERIG Contact ***********

*DIM,_loadvari32x,TABLE,2,1,1,TIME,
! Time values
_loadvari32x(1,0,1) = 0.
_loadvari32x(2,0,1) = 1.
! Load values
_loadvari32x(1,1,1) = 0.
_loadvari32x(2,1,1) = -2.02e-002


*DIM,_loadvari32y,TABLE,2,1,1,TIME,
! Time values
_loadvari32y(1,0,1) = 0.
_loadvari32y(2,0,1) = 1.
! Load values
_loadvari32y(1,1,1) = 0.
_loadvari32y(2,1,1) = 0.2619


*DIM,_loadvari32z,TABLE,2,1,1,TIME,
! Time values
_loadvari32z(1,0,1) = 0.
_loadvari32z(2,0,1) = 1.
! Load values
_loadvari32z(1,1,1) = 0.
_loadvari32z(2,1,1) = 0.

/com,*********** Construct Remote Force Using RBE3/CERIG Contact ***********

*DIM,_loadvari35x,TABLE,2,1,1,TIME,
! Time values
_loadvari35x(1,0,1) = 0.
_loadvari35x(2,0,1) = 1.
! Load values
_loadvari35x(1,1,1) = 0.
_loadvari35x(2,1,1) = 626.6


*DIM,_loadvari35y,TABLE,2,1,1,TIME,
! Time values
_loadvari35y(1,0,1) = 0.
_loadvari35y(2,0,1) = 1.
! Load values
_loadvari35y(1,1,1) = 0.
_loadvari35y(2,1,1) = 806.8


*DIM,_loadvari35z,TABLE,2,1,1,TIME,
! Time values
_loadvari35z(1,0,1) = 0.
_loadvari35z(2,0,1) = 1.
! Load values
_loadvari35z(1,1,1) = 0.
_loadvari35z(2,1,1) = 0.

/com,*********** Construct Remote Force Using RBE3/CERIG Contact ***********

*DIM,_loadvari38x,TABLE,2,1,1,TIME,
! Time values
_loadvari38x(1,0,1) = 0.
_loadvari38x(2,0,1) = 1.
! Load values
_loadvari38x(1,1,1) = 0.
_loadvari38x(2,1,1) = -783.


*DIM,_loadvari38y,TABLE,2,1,1,TIME,
! Time values
_loadvari38y(1,0,1) = 0.
_loadvari38y(2,0,1) = 1.
! Load values
_loadvari38y(1,1,1) = 0.
_loadvari38y(2,1,1) = -1141.9


*DIM,_loadvari38z,TABLE,2,1,1,TIME,
! Time values
_loadvari38z(1,0,1) = 0.
_loadvari38z(2,0,1) = 1.
! Load values
_loadvari38z(1,1,1) = 0.
_loadvari38z(2,1,1) = 0.

/gst,on,on
fini
*get,_numnode,node,0,count
*get,_numelem,elem,0,count
*get, _MAXELEMNUM, elem, 0, NUM, MAX
*get, _MAXNODENUM, node, 0, NUM, MAX
*get, _MAXELEMTYPE, etyp, 0, NUM, MAX
*get, _MAXREALCONST, real, 0, NUM, MAX
/go
/wb,load,end               !  done creating loads
/com,--- Number of total nodes = %_numnode%
/com,--- Number of contact elements = 106
/com,--- Number of spring elements = 0
/com,--- Number of bearing elements = 0
/com,--- Number of solid elements = 4135
/com,--- Number of total elements = %_numelem%
*get,_wallbsol,active,,time,wall
/com,****************************************************************************
/com,*************************    SOLUTION       ********************************
/com,****************************************************************************
/solu
antype,0                   ! static analysis
solc,on,on                 ! Turn on solution control with ability to use contact time prediction
eqsl,pcg,1e-8,,,,,,1
cntr,print,1               ! print out contact info and also make no initial contact an error
nldiag,cont,iter           ! print out contact info each equilibrium iteration
resc,,none                 ! Do not keep any restart files
/com,****************************************************
/com,******************* SOLVE FOR LS 1 ****************
nsel,s,node,,8034
f,all,fx,%_loadvari29x%
f,all,fy,%_loadvari29y%
f,all,fz,%_loadvari29z%
nsel,s,node,,8035
f,all,fx,%_loadvari32x%
f,all,fy,%_loadvari32y%
f,all,fz,%_loadvari32z%
nsel,s,node,,8036
f,all,fx,%_loadvari35x%
f,all,fy,%_loadvari35y%
f,all,fz,%_loadvari35z%
nsel,s,node,,8037
f,all,fx,%_loadvari38x%
f,all,fy,%_loadvari38y%
f,all,fz,%_loadvari38z%
nsel,all
/nopr
/gopr
nsub,1,1,1
time,1.
outres,erase
outres,all,none
outres,nsol,all
outres,rsol,all
outres,strs,all
outres,epel,all
outres,eppl,all
stabilize,off                   ! Stabilization turned OFF by user
! *********** WB SOLVE COMMAND ***********
! check interactive state
*get,ANSINTER_,active,,int
*if,ANSINTER_,ne,0,then
/eof
*endif
solve
/com *************** Write FE CONNECTORS ********* 
CEWRITE,file,ce,,INTE
/com,****************************************************
/com,*************** FINISHED SOLVE FOR LS 1 *************
*set,_DS_PROGRESS          ! turn off progress updates to avoid virus scanning bug
*get,_wallasol,active,,time,wall
*get,_PCGITER,active,,solu,cgiter
/post1
xmlo,ENCODING,ISO-8859-1
xmlo,parm
/xml,parm,xml
fini
/gopr
*get,_walldone,active,,time,wall
_preptime=(_wallbsol-_wallstrt)*3600
_solvtime=(_wallasol-_wallbsol)*3600
_posttime=(_walldone-_wallasol)*3600
_totaltim=(_walldone-_wallstrt)*3600
/wb,file,end               ! done with WB generated input
