
 ANSYS Academic Teaching Advanced                  


 *------------------------------------------------------------------*
 |                                                                  |
 |   W E L C O M E   T O   T H E   A N S Y S (R)  P R O G R A M     |
 |                                                                  |
 *------------------------------------------------------------------*




 ***************************************************************
 *                  ANSYS 15.0 LEGAL NOTICES                   *
 ***************************************************************
 *                                                             *
 * Copyright 2014 SAS IP, Inc.  All rights reserved.           *
 * Unauthorized use, distribution or duplication is            *
 * prohibited.                                                 *
 *                                                             *
 * Ansys is a registered trademark of ANSYS, Inc. or its       *
 * subsidiaries in the United States or other countries.       *
 * See the ANSYS, Inc. online documentation or the ANSYS, Inc. *
 * documentation CD or online help for the complete Legal      *
 * Notice.                                                     *
 *                                                             *
 ***************************************************************
 *                                                             *
 * THIS ANSYS SOFTWARE PRODUCT AND PROGRAM DOCUMENTATION       *
 * INCLUDE TRADE SECRETS AND CONFIDENTIAL AND PROPRIETARY      *
 * PRODUCTS OF ANSYS, INC., ITS SUBSIDIARIES, OR LICENSORS.    *
 * The software products and documentation are furnished by    *
 * ANSYS, Inc. or its subsidiaries under a software license    *
 * agreement that contains provisions concerning               *
 * non-disclosure, copying, length and nature of use,          *
 * compliance with exporting laws, warranties, disclaimers,    *
 * limitations of liability, and remedies, and other           *
 * provisions.  The software products and documentation may be *
 * used, disclosed, transferred, or copied only in accordance  *
 * with the terms and conditions of that software license      *
 * agreement.                                                  *
 *                                                             *
 * ANSYS, Inc. is a UL registered                              *
 * ISO 9001:2008 company.                                      *
 *                                                             *
 ***************************************************************
 *                                                             *
 * This product is subject to U.S. laws governing export and   *
 * re-export.                                                  *
 *                                                             *
 * For U.S. Government users, except as specifically granted   *
 * by the ANSYS, Inc. software license agreement, the use,     *
 * duplication, or disclosure by the United States Government  *
 * is subject to restrictions stated in the ANSYS, Inc.        *
 * software license agreement and FAR 12.212 (for non-DOD      *
 * licenses).                                                  *
 *                                                             *
 ***************************************************************

 Point Releases and Patches installed:   
     
 ANSYS, Inc. Products 15.0.7 
 ANSYS Mechanical Products 15.0.7
 ANSYS Autodyn 15.0.7
 ANSYS LS-DYNA 15.0.7
 ANSYS CFX (includes ANSYS CFD-Post) 15.0.7  
 ANSYS Fluent (includes ANSYS CFD-Post) 15.0.7   
 ANSYS TurboGrid 15.0.7  
 ANSYS Polyflow (includes ANSYS CFD-Post) 15.0.7 
 ANSYS Aqwa 15.0.7   
 ANSYS ICEM CFD 15.0.7   
 ANSYS Icepak (includes ANSYS CFD-Post) 15.0.7   
 Catia, Version 6 15.0.7 
 ANSYS, Inc. License Manager 15.0.7  


          *****  ANSYS COMMAND LINE ARGUMENTS  *****
  BATCH MODE REQUESTED (-b)    = NOLIST
  INPUT FILE COPY MODE (-c)    = COPY
     2 PARALLEL CPUS REQUESTED
  DESIGNXPLORER REQUESTED
  START-UP FILE MODE           = NOREAD
  STOP FILE MODE               = NOREAD

 00313154          VERSION=WINDOWS x64     RELEASE= 15.0.7  Maintenance Release UP20140420
 CURRENT JOBNAME=file  11:54:27  FEB 23, 2015 CP=      1.045


 PARAMETER _DS_PROGRESS =     999.0000000    

 /INPUT FILE= ds.dat  LINE=       0

 *GET  _WALLSTRT  FROM  ACTI  ITEM=TIME WALL  VALUE=  11.9075000    

 TITLE= 
 Models--Static Structural (B5)                                                


 SET PARAMETER DIMENSIONS ON  _WB_PROJECTSCRATCH_DIR
  TYPE=STRI  DIMENSIONS=      248        1        1

 PARAMETER _WB_PROJECTSCRATCH_DIR(1) = D:\MyDocs\Documents\Senior\Fall\Senior Design 1\AgileRoboticControls\SolidWorks Models\ANSYS\_ProjectScratch\ScrBA01\

 SET PARAMETER DIMENSIONS ON  _WB_SOLVERFILES_DIR
  TYPE=STRI  DIMENSIONS=      248        1        1

 PARAMETER _WB_SOLVERFILES_DIR(1) = D:\MyDocs\Documents\Senior\Fall\Senior Design 1\AgileRoboticControls\SolidWorks Models\ANSYS\Models_files\dp0\SYS-1\MECH\

 SET PARAMETER DIMENSIONS ON  _WB_USERFILES_DIR
  TYPE=STRI  DIMENSIONS=      248        1        1

 PARAMETER _WB_USERFILES_DIR(1) = D:\MyDocs\Documents\Senior\Fall\Senior Design 1\AgileRoboticControls\SolidWorks Models\ANSYS\Models_files\user_files\
 --- Data in consistent MKS units.

 MKS UNITS SPECIFIED FOR INTERNAL    
  LENGTH        (l)  = METER (M)
  MASS          (M)  = KILOGRAM (KG)
  TIME          (t)  = SECOND (SEC)
  TEMPERATURE   (T)  = CELSIUS (C)
  TOFFSET            = 273.0
  CHARGE        (Q)  = COULOMB
  FORCE         (f)  = NEWTON (N) (KG-M/SEC2)
  HEAT               = JOULE (N-M)

  PRESSURE           = PASCAL (NEWTON/M**2)
  ENERGY        (W)  = JOULE (N-M)
  POWER         (P)  = WATT (N-M/SEC)
  CURRENT       (i)  = AMPERE (COULOMBS/SEC)
  CAPACITANCE   (C)  = FARAD
  INDUCTANCE    (L)  = HENRY
  MAGNETIC FLUX      = WEBER
  RESISTANCE    (R)  = OHM
  ELECTRIC POTENTIAL = VOLT

 INPUT  UNITS ARE ALSO SET TO MKS 
1

 ***** ANSYS - ENGINEERING ANALYSIS SYSTEM  RELEASE 15.0.7   Maintenance Release *****
 ANSYS Academic Teaching Advanced                  
 00313154          VERSION=WINDOWS x64   11:54:27  FEB 23, 2015 CP=      1.092

 Models--Static Structural (B5)                                                


          ***** ANSYS ANALYSIS DEFINITION (PREP7) *****
 *********** Nodes for the whole assembly ***********
 *********** Elements for Body 1 "Solid" ***********
 *********** Send User Defined Coordinate System(s) ***********
 *********** Set Reference Temperature ***********
 *********** Send Materials ***********
 ******* Constant Zero Displacement X *******
 ******* Constant Zero Displacement Y *******
 ******* Constant Zero Displacement Z *******
 *********** Create Remote Point "Internal Remote Point" ***********
 *********** Create Remote Point "Internal Remote Point 2" ***********
 *********** Create Remote Point "Internal Remote Point 3" ***********
 *********** Create Remote Point "Internal Remote Point 4" ***********
 *********** Construct Remote Force Using RBE3/CERIG Contact ***********
 *********** Construct Remote Force Using RBE3/CERIG Contact ***********
 *********** Construct Remote Force Using RBE3/CERIG Contact ***********
 *********** Construct Remote Force Using RBE3/CERIG Contact ***********


 ***** ROUTINE COMPLETED *****  CP =         1.154


 --- Number of total nodes = 8037
 --- Number of contact elements = 106
 --- Number of spring elements = 0
 --- Number of bearing elements = 0
 --- Number of solid elements = 4135
 --- Number of total elements = 4245

 *GET  _WALLBSOL  FROM  ACTI  ITEM=TIME WALL  VALUE=  11.9075000    
 ****************************************************************************
 *************************    SOLUTION       ********************************
 ****************************************************************************

 *****  ANSYS SOLUTION ROUTINE  *****


 PERFORM A STATIC ANALYSIS
  THIS WILL BE A NEW ANALYSIS

 NEW SOLUTION CONTROL OPTION IS ACTIVATED,
 THE FOLLOWING COMMANDS ARE RESET TO NEW DEFAULTS: 
 AUTOTS, DELTIM, NSUB, CNVTOL, LNSRCH, PRED, NROPT,
 TINTP, CUTCONTROL, OPNCONTROL, MONITOR, NEQIT, SSTIF, KBC.

 CONTACT TIME PREDICTIONS ARE BASED ON ELEMENT KEYOPT(7) SPECIFIED 

 USE PRECONDITIONED CONJUGATE GRADIENT SOLVER
  CONVERGENCE TOLERANCE = 1.00000E-08
  MAXIMUM ITERATION     = NumNode*DofPerNode*  1.0000    

 CONTACT INFORMATION PRINTOUT LEVEL       1

 NLDIAG: Nonlinear diagnostics CONT option is set to ON. 
         Writing frequency : each ITERATION.

 DEFINE RESTART CONTROL FOR LOADSTEP LAST
 AT FREQUENCY OF LAST AND NUMBER FOR OVERWRITE IS    0

 WRITE MULTIFRAME RESTART FILES EVEN
 WHEN IT IS A LINEAR STATIC ANALYSIS
 ****************************************************
 ******************* SOLVE FOR LS 1 ****************

 SELECT       FOR ITEM=NODE COMPONENT=    
  IN RANGE      8034 TO       8034 STEP          1

          1  NODES (OF       8037  DEFINED) SELECTED BY  NSEL  COMMAND.

 SPECIFIED NODAL LOAD FX   FOR SELECTED NODES         1 TO     8037 BY        1
  SET ACCORDING TO TABLE PARAMETER = _LOADVARI29X

 SPECIFIED NODAL LOAD FY   FOR SELECTED NODES         1 TO     8037 BY        1
  SET ACCORDING TO TABLE PARAMETER = _LOADVARI29Y

 SPECIFIED NODAL LOAD FZ   FOR SELECTED NODES         1 TO     8037 BY        1
  SET ACCORDING TO TABLE PARAMETER = _LOADVARI29Z

 SELECT       FOR ITEM=NODE COMPONENT=    
  IN RANGE      8035 TO       8035 STEP          1

          1  NODES (OF       8037  DEFINED) SELECTED BY  NSEL  COMMAND.

 SPECIFIED NODAL LOAD FX   FOR SELECTED NODES         1 TO     8037 BY        1
  SET ACCORDING TO TABLE PARAMETER = _LOADVARI32X

 SPECIFIED NODAL LOAD FY   FOR SELECTED NODES         1 TO     8037 BY        1
  SET ACCORDING TO TABLE PARAMETER = _LOADVARI32Y

 SPECIFIED NODAL LOAD FZ   FOR SELECTED NODES         1 TO     8037 BY        1
  SET ACCORDING TO TABLE PARAMETER = _LOADVARI32Z

 SELECT       FOR ITEM=NODE COMPONENT=    
  IN RANGE      8036 TO       8036 STEP          1

          1  NODES (OF       8037  DEFINED) SELECTED BY  NSEL  COMMAND.

 SPECIFIED NODAL LOAD FX   FOR SELECTED NODES         1 TO     8037 BY        1
  SET ACCORDING TO TABLE PARAMETER = _LOADVARI35X

 SPECIFIED NODAL LOAD FY   FOR SELECTED NODES         1 TO     8037 BY        1
  SET ACCORDING TO TABLE PARAMETER = _LOADVARI35Y

 SPECIFIED NODAL LOAD FZ   FOR SELECTED NODES         1 TO     8037 BY        1
  SET ACCORDING TO TABLE PARAMETER = _LOADVARI35Z

 SELECT       FOR ITEM=NODE COMPONENT=    
  IN RANGE      8037 TO       8037 STEP          1

          1  NODES (OF       8037  DEFINED) SELECTED BY  NSEL  COMMAND.

 SPECIFIED NODAL LOAD FX   FOR SELECTED NODES         1 TO     8037 BY        1
  SET ACCORDING TO TABLE PARAMETER = _LOADVARI38X

 SPECIFIED NODAL LOAD FY   FOR SELECTED NODES         1 TO     8037 BY        1
  SET ACCORDING TO TABLE PARAMETER = _LOADVARI38Y

 SPECIFIED NODAL LOAD FZ   FOR SELECTED NODES         1 TO     8037 BY        1
  SET ACCORDING TO TABLE PARAMETER = _LOADVARI38Z

 ALL SELECT   FOR ITEM=NODE COMPONENT=    
  IN RANGE         1 TO       8037 STEP          1

       8037  NODES (OF       8037  DEFINED) SELECTED BY NSEL  COMMAND.

 PRINTOUT RESUMED BY /GOP

 USE       1 SUBSTEPS INITIALLY THIS LOAD STEP FOR ALL  DEGREES OF FREEDOM
 FOR AUTOMATIC TIME STEPPING:
   USE      1 SUBSTEPS AS A MAXIMUM
   USE      1 SUBSTEPS AS A MINIMUM

 TIME=  1.0000    

 ERASE THE CURRENT DATABASE OUTPUT CONTROL TABLE.


 WRITE ALL  ITEMS TO THE DATABASE WITH A FREQUENCY OF NONE
   FOR ALL APPLICABLE ENTITIES

 WRITE NSOL ITEMS TO THE DATABASE WITH A FREQUENCY OF ALL 
   FOR ALL APPLICABLE ENTITIES

 WRITE RSOL ITEMS TO THE DATABASE WITH A FREQUENCY OF ALL 
   FOR ALL APPLICABLE ENTITIES

 WRITE STRS ITEMS TO THE DATABASE WITH A FREQUENCY OF ALL 
   FOR ALL APPLICABLE ENTITIES

 WRITE EPEL ITEMS TO THE DATABASE WITH A FREQUENCY OF ALL 
   FOR ALL APPLICABLE ENTITIES

 WRITE EPPL ITEMS TO THE DATABASE WITH A FREQUENCY OF ALL 
   FOR ALL APPLICABLE ENTITIES

 NONLINEAR STABILIZATION CONTROL:
 KEY=OFF 


 *GET  ANSINTER_  FROM  ACTI  ITEM=INT        VALUE=  0.00000000    

 *IF  ANSINTER_                         ( =   0.00000     )  NE  
      0                                 ( =   0.00000     )  THEN    

 *ENDIF

 *****  ANSYS SOLVE    COMMAND  *****

 *** WARNING ***                         CP =       1.170   TIME= 11:54:27
 Element shape checking is currently inactive.  Issue SHPP,ON or         
 SHPP,WARN to reactivate, if desired.                                    

 *** NOTE ***                            CP =       1.201   TIME= 11:54:27
 The model data was checked and warning messages were found.             
  Please review output or errors file (                                  
 D:\MyDocs\Documents\Senior\Fall\Senior Design                           
 1\AgileRoboticControls\SolidWorks                                       
 Models\ANSYS\_ProjectScratch\ScrBA01\file.err ) for these warning       
 messages.                                                               

 *** SELECTION OF ELEMENT TECHNOLOGIES FOR APPLICABLE ELEMENTS ***
      --- GIVE SUGGESTIONS AND RESET THE KEY OPTIONS ---

 ELEMENT TYPE    1 IS SOLID187. IT IS NOT ASSOCIATED WITH FULLY INCOMPRESSIBLE
 HYPERELASTIC MATERIALS. NO SUGGESTION IS AVAILABLE AND NO RESETTING IS NEEDED.


1

 ***** ANSYS - ENGINEERING ANALYSIS SYSTEM  RELEASE 15.0.7   Maintenance Release *****
 ANSYS Academic Teaching Advanced                  
 00313154          VERSION=WINDOWS x64   11:54:27  FEB 23, 2015 CP=      1.201

 Models--Static Structural (B5)                                                


                       S O L U T I O N   O P T I O N S

   PROBLEM DIMENSIONALITY. . . . . . . . . . . . .3-D                  
   DEGREES OF FREEDOM. . . . . . UX   UY   UZ   ROTX ROTY ROTZ
   ANALYSIS TYPE . . . . . . . . . . . . . . . . .STATIC (STEADY-STATE)
   OFFSET TEMPERATURE FROM ABSOLUTE ZERO . . . . .  273.15    
   EQUATION SOLVER OPTION. . . . . . . . . . . . .PCG                
      TOLERANCE. . . . . . . . . . . . . . . . . . 1.00000E-08
   GLOBALLY ASSEMBLED MATRIX . . . . . . . . . . .SYMMETRIC  

 *** WARNING ***                         CP =       1.232   TIME= 11:54:27
 Material number 2 (used by element 4140 ) should normally have at least 
 one MP or one TB type command associated with it.  Output of energy by  
 material may not be available.                                          

 *** NOTE ***                            CP =       1.232   TIME= 11:54:27
 The step data was checked and warning messages were found.              
  Please review output or errors file (                                  
 D:\MyDocs\Documents\Senior\Fall\Senior Design                           
 1\AgileRoboticControls\SolidWorks                                       
 Models\ANSYS\_ProjectScratch\ScrBA01\file.err ) for these warning       
 messages.                                                               

 *** NOTE ***                            CP =       1.232   TIME= 11:54:27
 The conditions for direct assembly have been met.  No .emat or .erot    
 files will be produced.                                                 

 *** NOTE ***                            CP =       1.232   TIME= 11:54:27
 Internal nodes from 8038 to 8041 are created.                           
 4 internal nodes are used for handling degrees of freedom on pilot      
 nodes of rigid target surfaces.                                         

                      L O A D   S T E P   O P T I O N S

   LOAD STEP NUMBER. . . . . . . . . . . . . . . .     1
   TIME AT END OF THE LOAD STEP. . . . . . . . . .  1.0000    
   NUMBER OF SUBSTEPS. . . . . . . . . . . . . . .     1
   STEP CHANGE BOUNDARY CONDITIONS . . . . . . . .    NO
   PRINT OUTPUT CONTROLS . . . . . . . . . . . . .NO PRINTOUT
   DATABASE OUTPUT CONTROLS
      ITEM     FREQUENCY   COMPONENT
       ALL       NONE               
      NSOL        ALL               
      RSOL        ALL               
      STRS        ALL               
      EPEL        ALL               
      EPPL        ALL               


 SOLUTION MONITORING INFO IS WRITTEN TO FILE= file.mntr                                                                                                                                                                                                                                                           

 *** NOTE ***                            CP =       1.326   TIME= 11:54:27
 It is highly recommended to use the auto contact setting option by      
 issuing CNCHECK,AUTO command for this problem in order to achieve       
 better convergence.                                                     

 *** NOTE ***                            CP =       1.326   TIME= 11:54:27
 Force-distributed-surface identified by real constant set 2 and         
 contact element type 2 has been set up.  The pilot node 8034 is used    
 to apply the force.  Internal MPC will be built.                        
 The used degrees of freedom set is  UX   UY   UZ   ROTX ROTY ROTZ
 Please verify constraints (including rotational degrees of freedom)
  on the pilot node by yourself.

 *** NOTE ***                            CP =       1.326   TIME= 11:54:27
 Force-distributed-surface identified by real constant set 4 and         
 contact element type 4 has been set up.  The pilot node 8035 is used    
 to apply the force.  Internal MPC will be built.                        
 The used degrees of freedom set is  UX   UY   UZ   ROTX ROTY ROTZ
 Please verify constraints (including rotational degrees of freedom)
  on the pilot node by yourself.

 *** NOTE ***                            CP =       1.326   TIME= 11:54:27
 Force-distributed-surface identified by real constant set 6 and         
 contact element type 6 has been set up.  The pilot node 8036 is used    
 to apply the force.  Internal MPC will be built.                        
 The used degrees of freedom set is  UX   UY   UZ   ROTX ROTY ROTZ
 Please verify constraints (including rotational degrees of freedom)
  on the pilot node by yourself.

 *** NOTE ***                            CP =       1.326   TIME= 11:54:27
 Force-distributed-surface identified by real constant set 8 and         
 contact element type 8 has been set up.  The pilot node 8037 is used    
 to apply the force.  Internal MPC will be built.                        
 The used degrees of freedom set is  UX   UY   UZ   ROTX ROTY ROTZ
 Please verify constraints (including rotational degrees of freedom)
  on the pilot node by yourself.
  
  


 *** NOTE ***                            CP =       1.498   TIME= 11:54:27
 The PCG solver has automatically set the level of difficulty for this   
 model to 2.                                                             
  
 The FEA model contains 0 external CE equations and 24 internal CE       
 equations.                                                              


                         ***********  PRECISE MASS SUMMARY  ***********

   TOTAL RIGID BODY MASS MATRIX ABOUT ORIGIN
               Translational mass               |   Coupled translational/rotational mass
         1.1133        0.0000        0.0000     |     0.0000      -0.14314E-08   0.27912    
         0.0000        1.1133        0.0000     |    0.14314E-08    0.0000       0.75917E-01
         0.0000        0.0000        1.1133     |   -0.27912      -0.75917E-01    0.0000    
     ------------------------------------------ | ------------------------------------------
                                                |         Rotational mass (inertia)
                                                |    0.86279E-01   0.28504E-01  -0.21309E-09
                                                |    0.28504E-01   0.13689E-01  -0.34044E-09
                                                |   -0.21309E-09  -0.34044E-09   0.99872E-01

   TOTAL MASS =  1.1133    
     The mass principal axes coincide with the global Cartesian axes

   CENTER OF MASS (X,Y,Z)=   0.68190E-01  -0.25071      -0.12857E-08

   TOTAL INERTIA ABOUT CENTER OF MASS
        0.16300E-01   0.94710E-02  -0.31069E-09
        0.94710E-02   0.85124E-02   0.18414E-10
       -0.31069E-09   0.18414E-10   0.24717E-01

   PRINCIPAL INERTIAS =   0.22646E-01   0.21660E-02   0.24717E-01
   ORIENTATION VECTORS OF THE INERTIA PRINCIPAL AXES IN GLOBAL CARTESIAN
     ( 0.831, 0.557, 0.000) (-0.557, 0.831, 0.000) ( 0.000, 0.000, 1.000) 


  *** MASS SUMMARY BY ELEMENT TYPE ***

  TYPE      MASS
     1   1.11330    

 Range of element maximum matrix coefficients in global coordinates
 Maximum = 5.677029421E+09 at element 3533.                              
 Minimum = 198851057 at element 1204.                                    

   *** ELEMENT MATRIX FORMULATION TIMES
  TYPE    NUMBER   ENAME      TOTAL CP  AVE CP

     1      4135  SOLID187      0.842   0.000204
     2        32  CONTA174      0.000   0.000000
     3         1  TARGE170      0.000   0.000000
     4        32  CONTA174      0.000   0.000000
     5         1  TARGE170      0.000   0.000000
     6        16  CONTA174      0.000   0.000000
     7         1  TARGE170      0.000   0.000000
     8        26  CONTA174      0.000   0.000000
     9         1  TARGE170      0.000   0.000000
 Time at end of element matrix formulation CP = 2.10601354.              

 ALL CURRENT ANSYS DATA WRITTEN TO FILE NAME= file.rdb
  FOR POSSIBLE RESUME FROM THIS POINT
 Iteration=    10 Ratio=  0.121201     Limit=  1.000000E-08 Wall=     0.0
 Iteration=    45 Ratio=  9.432592E-04 Limit=  1.000000E-08 Wall=     0.1
 Iteration=   115 Ratio=  2.469874E-06 Limit=  1.000000E-08 Wall=     0.3

 PRECONDITIONED SOLVER CP TIME      =     1.108
 PRECONDITIONED SOLVER ELAPSED TIME =     0.564

   *** ELEMENT RESULT CALCULATION TIMES
  TYPE    NUMBER   ENAME      TOTAL CP  AVE CP

     1      4135  SOLID187      0.562   0.000136
     2        32  CONTA174      0.000   0.000000
     3         1  TARGE170      0.000   0.000000
     4        32  CONTA174      0.000   0.000000
     5         1  TARGE170      0.000   0.000000
     6        16  CONTA174      0.000   0.000000
     7         1  TARGE170      0.000   0.000000
     8        26  CONTA174      0.000   0.000000
     9         1  TARGE170      0.000   0.000000

   *** NODAL LOAD CALCULATION TIMES
  TYPE    NUMBER   ENAME      TOTAL CP  AVE CP

     1      4135  SOLID187      0.031   0.000008
     2        32  CONTA174      0.000   0.000000
     3         1  TARGE170      0.000   0.000000
     4        32  CONTA174      0.000   0.000000
     5         1  TARGE170      0.000   0.000000
     6        16  CONTA174      0.000   0.000000
     7         1  TARGE170      0.000   0.000000
     8        26  CONTA174      0.000   0.000000
     9         1  TARGE170      0.000   0.000000
 *** LOAD STEP     1   SUBSTEP     1  COMPLETED.    CUM ITER =      1
 *** TIME =   1.00000         TIME INC =   1.00000      NEW TRIANG MATRIX


 *** ANSYS BINARY FILE STATISTICS
  BUFFER SIZE USED= 16384
       13.875 MB WRITTEN ON ELEMENT SAVED DATA FILE: file.esav
        4.062 MB WRITTEN ON RESULTS FILE: file.rst
 *************** Write FE CONNECTORS *********

 WRITE OUT CONSTRAINT EQUATIONS TO FILE= file.ce                                                                                                                                                                                                                                                             
 ****************************************************
 *************** FINISHED SOLVE FOR LS 1 *************

 PARAMETER _DS_PROGRESS  DELETED.

 *GET  _WALLASOL  FROM  ACTI  ITEM=TIME WALL  VALUE=  11.9080556    

 *GET  _PCGITER  FROM  ACTI  ITEM=SOLU CGIT  VALUE=  181.000000    

 FINISH SOLUTION PROCESSING


 ***** ROUTINE COMPLETED *****  CP =         3.744


1

 ***** ANSYS - ENGINEERING ANALYSIS SYSTEM  RELEASE 15.0.7   Maintenance Release *****
 ANSYS Academic Teaching Advanced                  
 00313154          VERSION=WINDOWS x64   11:54:29  FEB 23, 2015 CP=      3.744

 Models--Static Structural (B5)                                                


          ***** ANSYS RESULTS INTERPRETATION (POST1) *****

 *** NOTE ***                            CP =       3.744   TIME= 11:54:29
 Reading results into the database (SET command) will update the current 
 displacement and force boundary conditions in the database with the     
 values from the results file for that load set.  Note that any          
 subsequent solutions will use these values unless action is taken to    
 either SAVE the current values or not overwrite them (/EXIT,NOSAVE).    

 Set Encoding of XML File to:ISO-8859-1

 Set Output of XML File to:
     PARM,     ,     ,     ,     ,     ,     ,     ,     ,     ,     ,     ,
         ,     ,     ,     ,     ,     ,     ,

 DATABASE WRITTEN ON FILE  parm.xml                                                                                                                                                                                                                                                            

 EXIT THE ANSYS POST1 DATABASE PROCESSOR


 ***** ROUTINE COMPLETED *****  CP =         3.744



 PRINTOUT RESUMED BY /GOP

 *GET  _WALLDONE  FROM  ACTI  ITEM=TIME WALL  VALUE=  11.9080556    

 PARAMETER _PREPTIME =     0.000000000    

 PARAMETER _SOLVTIME =     2.000000000    

 PARAMETER _POSTTIME =     0.000000000    

 PARAMETER _TOTALTIM =     2.000000000    

 EXIT ANSYS WITHOUT SAVING DATABASE


 NUMBER OF WARNING MESSAGES ENCOUNTERED=          2
 NUMBER OF ERROR   MESSAGES ENCOUNTERED=          0

+--------------------- A N S Y S   S T A T I S T I C S ------------------------+

Release: 15.0.7     Build: UP20140420   Platform: WINDOWS x64 
Date Run: 02/23/2015   Time: 11:54
Windows Process ID:         4776

Processor Model:        Intel(R) Core(TM) i5-3320M CPU @ 2.60GHz

Compiler: Intel(R) FORTRAN Compiler Version 12.1.0  (Build: 20120928)
          Microsoft(R) Visual C/C++ Compiler Version 16.0  (Build: 40219)
          Intel(R) Math Kernel Library Version 11.0.5 Product Build 20130612

Total number of cores available    :    4
Number of physical cores available :    2
Number of cores requested          :    2 (Shared Memory Parallel)

GPU Acceleration: Not Requested

Job Name: file
Working Directory: D:\MyDocs\Documents\Senior\Fall\Senior Design 1\AgileRoboticControls\SolidWorks Models\ANSYS\_ProjectScratch\ScrBA01

Total CPU time for main thread                    :        2.4 seconds
Total CPU time summed for all threads             :        3.8 seconds

Elapsed time spent pre-processing model (/PREP7)  :        0.0 seconds
Elapsed time spent solution - preprocessing       :        0.1 seconds
Elapsed time spent computing solution             :        1.2 seconds
Elapsed time spent solution - postprocessing      :        0.0 seconds
Elapsed time spent post-processing model (/POST1) :        0.0 seconds

Equation solver computational rate                :     5240.6 Mflops

Maximum total memory used                         :       39.0 MB
Maximum total memory allocated                    :     1088.0 MB
Maximum total memory available                    :          4 GB

+------------------ E N D   A N S Y S   S T A T I S T I C S -------------------+


 *---------------------------------------------------------------------------*
 |                                                                           |
 |                            ANSYS RUN COMPLETED                            |
 |                                                                           |
 |---------------------------------------------------------------------------|
 |                                                                           |
 |            Release 15.0.7         UP20140420         WINDOWS x64          |
 |                                                                           |
 |---------------------------------------------------------------------------|
 |                                                                           |
 | Database Requested(-db)   512 MB    Scratch Memory Requested       512 MB |
 | Maximum Database Used      11 MB    Maximum Scratch Memory Used     28 MB |
 |                                                                           |
 |---------------------------------------------------------------------------|
 |                                                                           |
 |        CP Time      (sec) =          3.760       Time  =  11:54:29        |
 |        Elapsed Time (sec) =          6.000       Date  =  02/23/2015      |
 |                                                                           |
 *---------------------------------------------------------------------------*
